@<TRIPOS>MOLECULE
ACE
  212   213    16     0     1 
SMALL
USER_CHARGES
@<TRIPOS>ATOM
  1 HH31    1.328485    2.172518   -0.000000 HC    1 ACE     0.1123 ****
  2 CH3     2.005535    1.318291   -0.000000 CT    1 ACE    -0.3662 ****
  3 HH32    2.634154    1.352252    0.889822 HC    1 ACE     0.1123 ****
  4 HH33    2.634155    1.352251   -0.889822 HC    1 ACE     0.1123 ****
  5 C       1.229000    0.000000    0.000000 C     1 ACE     0.5972 ****
  6 O       0.000000    0.000000    0.000000 O     1 ACE    -0.5679 ****
  7 N       1.954135   -1.120894   -0.000000 N     2 GLU    -0.5163 ****
  8 H       2.962841   -1.069799   -0.000001 H     2 GLU     0.2936 ****
  9 CA      1.337179   -2.431988    0.000003 CX    2 GLU     0.0397 ****
 10 HA      0.717412   -2.542470   -0.889818 H1    2 GLU     0.1105 ****
 11 CB      2.390772   -3.534515    0.000000 2C    2 GLU     0.0560 ****
 12 HB2     3.013565   -3.442633   -0.889823 HC    2 GLU    -0.0173 ****
 13 HB3     3.013570   -3.442635    0.889821 HC    2 GLU    -0.0173 ****
 14 CG      1.709240   -4.881962    0.000001 2C    2 GLU     0.0136 ****
 15 HG2     1.086583   -4.974769    0.889825 HC    2 GLU    -0.0425 ****
 16 HG3     1.086580   -4.974769   -0.889820 HC    2 GLU    -0.0425 ****
 17 CD      2.764214   -5.985935    0.000001 CO    2 GLU     0.8054 ****
 18 OE1     3.162124   -6.402325    1.120665 O2    2 GLU    -0.8188 ****
 19 OE2     3.162124   -6.402324   -1.120663 O2    2 GLU    -0.8188 ****
 20 C       0.461483   -2.625462    1.229723 C     2 GLU     0.5366 ****
 21 O      -0.620901   -3.200715    1.140463 O     2 GLU    -0.5819 ****
 22 N       0.933121   -2.142374    2.381421 N     3 GLY    -0.4157 ****
 23 H       1.829106   -1.676783    2.404582 H     3 GLY     0.2719 ****
 24 CA      0.194437   -2.263092    3.622136 CX    3 GLY    -0.0252 ****
 25 HA2     0.032236   -3.317035    3.847952 H1    3 GLY     0.0698 ****
 26 HA3     0.762557   -1.802174    4.430155 H1    3 GLY     0.0698 ****
 27 C      -1.154648   -1.568112    3.506141 C     3 GLY     0.5973 ****
 28 O      -2.160683   -2.072545    3.999986 O     3 GLY    -0.5679 ****
 29 N      -1.173698   -0.405465    2.850310 N     4 VAL    -0.4157 ****
 30 H      -0.320065   -0.030881    2.461599 H     4 VAL     0.2719 ****
 31 CA     -2.395313    0.353111    2.671920 CX    4 VAL    -0.0875 ****
 32 HA     -2.805842    0.616250    3.646765 H1    4 VAL     0.0969 ****
 33 CB     -2.135454    1.636397    1.890080 3C    4 VAL     0.2985 ****
 34 HB     -1.418246    2.253367    2.431431 HC    4 VAL    -0.0297 ****
 35 CG1    -1.571882    1.289292    0.516206 CT    4 VAL    -0.3192 ****
 36 HG11   -2.288779    0.672673   -0.025957 HC    4 VAL     0.0791 ****
 37 HG12   -1.385956    2.206218   -0.043059 HC    4 VAL     0.0791 ****
 38 HG13   -0.637521    0.740534    0.634255 HC    4 VAL     0.0791 ****
 39 CG2    -3.442655    2.404075    1.724189 CT    4 VAL    -0.3192 ****
 40 HG21   -3.845893    2.652387    2.705944 HC    4 VAL     0.0791 ****
 41 HG22   -3.257474    3.321443    1.165401 HC    4 VAL     0.0791 ****
 42 HG23   -4.160258    1.787875    1.182483 HC    4 VAL     0.0791 ****
 43 C      -3.435108   -0.454373    1.908194 C     4 VAL     0.5973 ****
 44 O      -4.619767   -0.411331    2.232494 O     4 VAL    -0.5679 ****
 45 N      -2.988443   -1.193073    0.889843 N     5 VAL    -0.4157 ****
 46 H      -2.004628   -1.195882    0.661371 H     5 VAL     0.2719 ****
 47 CA     -3.878262   -2.005811    0.085304 CX    5 VAL    -0.0875 ****
 48 HA     -4.626965   -1.368728   -0.385512 H1    5 VAL     0.0969 ****
 49 CB     -3.110855   -2.744323   -1.006168 3C    5 VAL     0.2985 ****
 50 HB     -2.616277   -2.021976   -1.655557 HC    5 VAL    -0.0297 ****
 51 CG1    -2.065361   -3.652122   -0.367053 CT    5 VAL    -0.3192 ****
 52 HG11   -2.559256   -4.375089    0.282168 HC    5 VAL     0.0791 ****
 53 HG12   -1.516539   -4.180238   -1.146789 HC    5 VAL     0.0791 ****
 54 HG13   -1.371954   -3.050815    0.220925 HC    5 VAL     0.0791 ****
 55 CG2    -4.080641   -3.586213   -1.828578 CT    5 VAL    -0.3192 ****
 56 HG21   -4.828155   -2.937781   -2.285591 HC    5 VAL     0.0791 ****
 57 HG22   -3.532621   -4.114305   -2.608893 HC    5 VAL     0.0791 ****
 58 HG23   -4.575297   -4.309153   -1.179907 HC    5 VAL     0.0791 ****
 59 C      -4.591192   -3.045871    0.937648 C     5 VAL     0.5973 ****
 60 O      -5.776695   -3.305256    0.743375 O     5 VAL    -0.5679 ****
 61 N      -3.864194   -3.642450    1.885167 N     6 HIE    -0.4157 ****
 62 H      -2.892442   -3.395387    2.006649 H     6 HIE     0.2719 ****
 63 CA     -4.427117   -4.649482    2.761869 CX    6 HIE    -0.0581 ****
 64 HA     -4.788620   -5.488511    2.167357 H1    6 HIE     0.1360 ****
 65 CB     -3.383735   -5.164456    3.747658 CT    6 HIE    -0.0074 ****
 66 HB2    -2.551625   -5.605904    3.199192 HC    6 HIE     0.0367 ****
 67 HB3    -3.018852   -4.337228    4.356471 HC    6 HIE     0.0367 ****
 68 CG     -3.878284   -6.221086    4.706332 CC    6 HIE     0.1868 ****
 69 ND1    -3.049618   -6.791089    5.665763 NB    6 HIE    -0.5432 ****
 70 CE1    -3.758938   -7.672545    6.345690 CR    6 HIE     0.1635 ****
 71 HE1    -3.295266   -8.238682    7.153524 H5    6 HIE     0.1435 ****
 72 NE2    -4.980813   -7.692024    5.873733 NA    6 HIE    -0.2795 ****
 73 HE2    -5.725643   -8.280709    6.218374 H     6 HIE     0.3339 ****
 74 CD2    -5.098800   -6.802912    4.851402 CW    6 HIE    -0.2207 ****
 75 HD2    -6.053248   -6.686165    4.338078 H4    6 HIE     0.1862 ****
 76 C      -5.589921   -4.087047    3.566876 C     6 HIE     0.5973 ****
 77 O      -6.596436   -4.763835    3.765185 O     6 HIE    -0.5679 ****
 78 N      -5.449209   -2.843405    4.031399 N     7 GLY    -0.4157 ****
 79 H      -4.602450   -2.326418    3.842128 H     7 GLY     0.2719 ****
 80 CA     -6.484525   -2.195558    4.811153 CX    7 GLY    -0.0252 ****
 81 HA2    -6.674388   -2.773659    5.715504 H1    7 GLY     0.0698 ****
 82 HA3    -6.159969   -1.191383    5.083910 H1    7 GLY     0.0698 ****
 83 C      -7.772477   -2.098197    4.006055 C     7 GLY     0.5973 ****
 84 O      -8.860173   -2.295823    4.542993 O     7 GLY    -0.5679 ****
 85 C      -9.583703   -2.953306    1.698486 c     8 A1S     0.6985 ****
 86 O     -10.784215   -2.930299    1.674957 o     8 A1S    -0.5857 ****
 87 CA     -8.763071   -1.656517    1.791928 c3    8 A1S     0.0165 ****
 88 CB     -8.479048   -1.055726    0.409483 c3    8 A1S    -0.0002 ****
 89 CC     -7.825007    0.325580    0.484536 c3    8 A1S    -0.0602 ****
 90 CD     -7.532127    0.945080   -0.893259 c3    8 A1S     0.1463 ****
 91 CE     -6.886989    2.307586   -0.828861 c2    8 A1S    -0.2566 ****
 92 CF     -5.622535    2.615413   -1.069387 c2    8 A1S    -0.2566 ****
 93 CY     -4.494629    1.704329   -1.478958 c3    8 A1S     0.1463 ****
 94 N      -7.609187   -1.780737    2.674065 ns    8 A1S    -0.6869 ****
 95 HA     -9.423574   -0.965912    2.310042 h1    8 A1S     0.0892 ****
 96 HB1    -9.425270   -0.999492   -0.110135 hc    8 A1S     0.0301 ****
 97 HB2    -7.855072   -1.729017   -0.169186 hc    8 A1S     0.0301 ****
 98 HC1    -6.890543    0.260118    1.034597 hc    8 A1S     0.0335 ****
 99 HC2    -8.469898    1.003953    1.041991 hc    8 A1S     0.0335 ****
100 HD1    -8.466553    1.026170   -1.445136 hc    8 A1S     0.0092 ****
101 HD2    -6.910402    0.256404   -1.454000 hc    8 A1S     0.0092 ****
102 HE     -7.543207    3.115772   -0.549327 ha    8 A1S     0.1440 ****
103 HF     -5.337137    3.652046   -0.971137 ha    8 A1S     0.1440 ****
104 HG1    -4.792888    0.662437   -1.422286 hc    8 A1S     0.0092 ****
105 HG2    -3.681078    1.845924   -0.775263 hc    8 A1S     0.0092 ****
106 H      -6.678404   -1.641330    2.343776 hn    8 A1S     0.3496 ****
107 N      -8.841854   -4.114549    1.645421 N     9 ALA    -0.4157 ****
108 H      -7.835917   -4.027850    1.671382 H     9 ALA     0.2719 ****
109 CA     -9.494068   -5.405359    1.555824 CX    9 ALA     0.0337 ****
110 HA    -10.098065   -5.445696    0.649370 H1    9 ALA     0.0823 ****
111 CB     -8.471041   -6.535394    1.510424 CT    9 ALA    -0.1825 ****
112 HB1    -7.864520   -6.513705    2.415831 HC    9 ALA     0.0603 ****
113 HB2    -8.988643   -7.492306    1.443296 HC    9 ALA     0.0603 ****
114 HB3    -7.827705   -6.409016    0.639650 HC    9 ALA     0.0603 ****
115 C     -10.399950   -5.645939    2.754983 C     9 ALA     0.5973 ****
116 O     -11.495484   -6.184037    2.611124 O     9 ALA    -0.5679 ****
117 N      -9.939291   -5.244998    3.942108 N    10 THR    -0.4157 ****
118 H      -9.031660   -4.807157    4.009935 H    10 THR     0.2719 ****
119 CA    -10.706493   -5.417508    5.159171 CX   10 THR    -0.0389 ****
120 HA    -10.901903   -6.477889    5.318878 H1   10 THR     0.1007 ****
121 CB     -9.950000   -4.874127    6.366681 3C   10 THR     0.3654 ****
122 HB    -10.549297   -5.016868    7.265885 H1   10 THR     0.0043 ****
123 CG2    -8.627002   -5.618058    6.514559 CT   10 THR    -0.2438 ****
124 HG21   -8.026924   -5.475391    5.615865 HC   10 THR     0.0642 ****
125 HG22   -8.085872   -5.230043    7.377532 HC   10 THR     0.0642 ****
126 HG23   -8.821249   -6.681227    6.656126 HC   10 THR     0.0642 ****
127 OG1    -9.694481   -3.479453    6.180958 OH   10 THR    -0.6761 ****
128 HG1    -9.218262   -3.137389    6.941095 HO   10 THR     0.4102 ****
129 C     -12.037887   -4.684724    5.076099 C    10 THR     0.5973 ****
130 O     -13.060393   -5.195775    5.527485 O    10 THR    -0.5679 ****
131 N     -12.023248   -3.482307    4.496269 N    11 VAL    -0.4157 ****
132 H     -11.157188   -3.103926    4.140084 H    11 VAL     0.2719 ****
133 CA    -13.225094   -2.685099    4.356161 CX   11 VAL    -0.0875 ****
134 HA    -13.639572   -2.475326    5.342215 H1   11 VAL     0.0969 ****
135 CB    -12.927537   -1.360862    3.660835 3C   11 VAL     0.2985 ****
136 HB    -12.201952   -0.797043    4.247123 HC   11 VAL    -0.0297 ****
137 CG1   -12.357847   -1.632457    2.272558 CT   11 VAL    -0.3192 ****
138 HG11  -13.083104   -2.195881    1.685484 HC   11 VAL     0.0791 ****
139 HG12  -12.144978   -0.686236    1.775111 HC   11 VAL     0.0791 ****
140 HG13  -11.437688   -2.209657    2.363388 HC   11 VAL     0.0791 ****
141 CG2   -14.214862   -0.553345    3.533021 CT   11 VAL    -0.3192 ****
142 HG21  -14.622466   -0.358980    4.525081 HC   11 VAL     0.0791 ****
143 HG22  -14.002733    0.393304    3.036074 HC   11 VAL     0.0791 ****
144 HG23  -14.940820   -1.116364    2.946425 HC   11 VAL     0.0791 ****
145 C     -14.275246   -3.417083    3.532835 C    11 VAL     0.5973 ****
146 O     -15.461909   -3.366835    3.848659 O    11 VAL    -0.5679 ****
147 C     -15.389775   -5.906959    2.430385 c    12 A2R     0.7061 ****
148 O     -16.558300   -6.150355    2.269234 o    12 A2R    -0.5802 ****
149 CA    -14.683733   -4.850970    1.580385 c3   12 A2R    -0.0713 ****
150 CB    -15.754376   -3.962656    0.914950 c3   12 A2R     0.0105 ****
151 CY    -15.290050   -3.159312   -0.307965 c3   12 A2R    -0.0668 ****
152 N     -13.788797   -4.112010    2.445598 ns   12 A2R    -0.5960 ****
153 HA    -14.075715   -5.322055    0.821328 h1   12 A2R     0.0979 ****
154 HB1   -16.179880   -3.308452    1.668655 hc   12 A2R     0.0318 ****
155 HB2   -16.563085   -4.609344    0.584393 hc   12 A2R     0.0318 ****
156 HC1   -14.884361   -3.850914   -1.043841 hc   12 A2R     0.0314 ****
157 HC2   -16.175630   -2.717694   -0.757337 hc   12 A2R     0.0314 ****
158 H     -12.805260   -4.084047    2.282702 hn   12 A2R     0.3270 ****
159 N     -14.594802   -6.534243    3.366426 N    13 GLU    -0.5163 ****
160 H     -13.625711   -6.254604    3.418997 H    13 GLU     0.2936 ****
161 CA    -15.142213   -7.555467    4.236509 CX   13 GLU     0.0397 ****
162 HA    -15.526882   -8.378582    3.634338 H1   13 GLU     0.1105 ****
163 CB    -14.076816   -8.099844    5.182135 2C   13 GLU     0.0560 ****
164 HB2   -13.263722   -8.535933    4.601787 HC   13 GLU    -0.0173 ****
165 HB3   -13.688479   -7.288863    5.798254 HC   13 GLU    -0.0173 ****
166 CG    -14.685465   -9.158878    6.069882 2C   13 GLU     0.0136 ****
167 HG2   -15.498391   -8.723396    6.650923 HC   13 GLU    -0.0425 ****
168 HG3   -15.073633   -9.970466    5.454457 HC   13 GLU    -0.0425 ****
169 CD    -13.618673   -9.703967    7.016751 CO   13 GLU     0.8054 ****
170 OE1   -13.483783   -9.124265    8.127315 O2   13 GLU    -0.8188 ****
171 OE2   -12.948829  -10.694855    6.620455 O2   13 GLU    -0.8188 ****
172 C     -16.277857   -7.001340    5.084883 C    13 GLU     0.5366 ****
173 O     -17.284326   -7.674254    5.296181 O    13 GLU    -0.5819 ****
174 N     -16.113981   -5.769166    5.571829 N    14 LYS    -0.3479 ****
175 H     -15.268317   -5.254940    5.370526 H    14 LYS     0.2747 ****
176 CA    -17.122150   -5.130113    6.393298 CX   14 LYS    -0.2400 ****
177 HA    -17.292250   -5.726072    7.289957 H1   14 LYS     0.1426 ****
178 CB    -16.682242   -3.731785    6.813753 C8   14 LYS    -0.0094 ****
179 HB2   -15.757143   -3.798181    7.386364 HC   14 LYS     0.0362 ****
180 HB3   -16.516794   -3.120307    5.926724 HC   14 LYS     0.0362 ****
181 CG    -17.767916   -3.094739    7.674630 C8   14 LYS     0.0187 ****
182 HG2   -18.693258   -3.027579    7.102500 HC   14 LYS     0.0103 ****
183 HG3   -17.933606   -3.705451    8.562143 HC   14 LYS     0.0103 ****
184 CD    -17.328009   -1.696409    8.095084 C8   14 LYS    -0.0479 ****
185 HD2   -16.402910   -1.762804    8.667693 HC   14 LYS     0.0621 ****
186 HD3   -17.162564   -1.084932    7.208054 HC   14 LYS     0.0621 ****
187 CE    -18.413683   -1.059364    8.955962 C8   14 LYS    -0.0143 ****
188 HE2   -19.339026   -0.992205    8.383834 HP   14 LYS     0.1135 ****
189 HE3   -18.579370   -1.670076    9.843475 HP   14 LYS     0.1135 ****
190 NZ    -17.989643    0.288534    9.361251 N3   14 LYS    -0.3854 ****
191 HZ1   -17.836476    0.854723    8.539016 H    14 LYS     0.3400 ****
192 HZ2   -18.708678    0.710446    9.931407 H    14 LYS     0.3400 ****
193 HZ3   -17.132442    0.226488    9.891776 H    14 LYS     0.3400 ****
194 C     -18.438415   -4.997028    5.640824 C    14 LYS     0.7341 ****
195 O     -19.507376   -5.195062    6.214013 O    14 LYS    -0.5894 ****
196 N     -18.358479   -4.660040    4.351531 N    15 THR    -0.4157 ****
197 H     -17.456018   -4.507537    3.924441 H    15 THR     0.2719 ****
198 CA    -19.539327   -4.501957    3.526783 CX   15 THR    -0.0389 ****
199 HA    -20.172830   -3.719494    3.944544 H1   15 THR     0.1007 ****
200 CB    -19.164678   -4.115647    2.099889 3C   15 THR     0.3654 ****
201 HB    -20.070201   -4.003758    1.503559 H1   15 THR     0.0043 ****
202 CG2   -18.399885   -2.796368    2.114616 CT   15 THR    -0.2438 ****
203 HG21  -17.493934   -2.907617    2.710413 HC   15 THR     0.0642 ****
204 HG22  -18.131852   -2.519778    1.094932 HC   15 THR     0.0642 ****
205 HG23  -19.026455   -2.017405    2.549046 HC   15 THR     0.0642 ****
206 OG1   -18.342143   -5.137136    1.529893 OH   15 THR    -0.6761 ****
207 HG1   -18.106298   -4.893952    0.631651 HO   15 THR     0.4102 ****
208 C     -20.340564   -5.794439    3.463598 C    15 THR     0.5973 ****
209 O     -21.568692   -5.769536    3.502608 O    15 THR    -0.5679 ****
210 N     -19.640995   -6.927235    3.365614 N    16 NHE    -0.4630 ****
211 HN1   -18.631861   -6.896705    3.337012 H    16 NHE     0.2315 ****
212 HN2   -20.120866   -7.814789    3.320088 H    16 NHE     0.2315 ****
@<TRIPOS>BOND
    1     5     6 1
    2     5     7 1
    3     2     3 1
    4     2     4 1
    5     2     5 1
    6     1     2 1
    7    20    21 1
    8    20    22 1
    9    17    18 1
   10    17    19 1
   11    14    15 1
   12    14    16 1
   13    14    17 1
   14    11    12 1
   15    11    13 1
   16    11    14 1
   17     9    10 1
   18     9    11 1
   19     9    20 1
   20     7     8 1
   21     7     9 1
   22    27    28 1
   23    27    29 1
   24    24    25 1
   25    24    26 1
   26    24    27 1
   27    22    23 1
   28    22    24 1
   29    43    44 1
   30    43    45 1
   31    39    40 1
   32    39    41 1
   33    39    42 1
   34    35    36 1
   35    35    37 1
   36    35    38 1
   37    33    34 1
   38    33    35 1
   39    33    39 1
   40    31    32 1
   41    31    33 1
   42    31    43 1
   43    29    30 1
   44    29    31 1
   45    59    60 1
   46    59    61 1
   47    55    56 1
   48    55    57 1
   49    55    58 1
   50    51    52 1
   51    51    53 1
   52    51    54 1
   53    49    50 1
   54    49    51 1
   55    49    55 1
   56    47    48 1
   57    47    49 1
   58    47    59 1
   59    45    46 1
   60    45    47 1
   61    76    77 1
   62    76    78 1
   63    74    75 1
   64    72    73 1
   65    72    74 1
   66    70    71 1
   67    70    72 1
   68    69    70 1
   69    68    69 1
   70    68    74 1
   71    65    66 1
   72    65    67 1
   73    65    68 1
   74    63    64 1
   75    63    65 1
   76    63    76 1
   77    61    62 1
   78    61    63 1
   79    83    84 1
   80    83    94 1
   81    80    81 1
   82    80    82 1
   83    80    83 1
   84    78    79 1
   85    78    80 1
   86    94   106 1
   87    93   104 1
   88    93   105 1
   89    93   151 1
   90    92    93 1
   91    92   103 1
   92    91    92 1
   93    91   102 1
   94    90    91 1
   95    90   100 1
   96    90   101 1
   97    89    90 1
   98    89    98 1
   99    89    99 1
  100    88    89 1
  101    88    96 1
  102    88    97 1
  103    87    88 1
  104    87    94 1
  105    87    95 1
  106    85    86 1
  107    85    87 1
  108    85   107 1
  109   115   116 1
  110   115   117 1
  111   111   112 1
  112   111   113 1
  113   111   114 1
  114   109   110 1
  115   109   111 1
  116   109   115 1
  117   107   108 1
  118   107   109 1
  119   129   130 1
  120   129   131 1
  121   127   128 1
  122   123   124 1
  123   123   125 1
  124   123   126 1
  125   121   122 1
  126   121   123 1
  127   121   127 1
  128   119   120 1
  129   119   121 1
  130   119   129 1
  131   117   118 1
  132   117   119 1
  133   145   146 1
  134   145   152 1
  135   141   142 1
  136   141   143 1
  137   141   144 1
  138   137   138 1
  139   137   139 1
  140   137   140 1
  141   135   136 1
  142   135   137 1
  143   135   141 1
  144   133   134 1
  145   133   135 1
  146   133   145 1
  147   131   132 1
  148   131   133 1
  149   152   158 1
  150   151   156 1
  151   151   157 1
  152   150   151 1
  153   150   154 1
  154   150   155 1
  155   149   150 1
  156   149   152 1
  157   149   153 1
  158   147   148 1
  159   147   149 1
  160   147   159 1
  161   172   173 1
  162   172   174 1
  163   169   170 1
  164   169   171 1
  165   166   167 1
  166   166   168 1
  167   166   169 1
  168   163   164 1
  169   163   165 1
  170   163   166 1
  171   161   162 1
  172   161   163 1
  173   161   172 1
  174   159   160 1
  175   159   161 1
  176   194   195 1
  177   194   196 1
  178   190   191 1
  179   190   192 1
  180   190   193 1
  181   187   188 1
  182   187   189 1
  183   187   190 1
  184   184   185 1
  185   184   186 1
  186   184   187 1
  187   181   182 1
  188   181   183 1
  189   181   184 1
  190   178   179 1
  191   178   180 1
  192   178   181 1
  193   176   177 1
  194   176   178 1
  195   176   194 1
  196   174   175 1
  197   174   176 1
  198   208   209 1
  199   208   210 1
  200   206   207 1
  201   202   203 1
  202   202   204 1
  203   202   205 1
  204   200   201 1
  205   200   202 1
  206   200   206 1
  207   198   199 1
  208   198   200 1
  209   198   208 1
  210   196   197 1
  211   196   198 1
  212   210   211 1
  213   210   212 1
@<TRIPOS>SUBSTRUCTURE
      1  ACE              1 ****               0 ****  **** 
      2  GLU              7 ****               0 ****  **** 
      3  GLY             22 ****               0 ****  **** 
      4  VAL             29 ****               0 ****  **** 
      5  VAL             45 ****               0 ****  **** 
      6  HIE             61 ****               0 ****  **** 
      7  GLY             78 ****               0 ****  **** 
      8  A1S             85 ****               0 ****  **** 
      9  ALA            107 ****               0 ****  **** 
     10  THR            117 ****               0 ****  **** 
     11  VAL            131 ****               0 ****  **** 
     12  A2R            147 ****               0 ****  **** 
     13  GLU            159 ****               0 ****  **** 
     14  LYS            174 ****               0 ****  **** 
     15  THR            196 ****               0 ****  **** 
     16  NHE            210 ****               0 ****  **** 
