@<TRIPOS>MOLECULE
MOL
38 37 1 0 1
SMALL
USER_CHARGES
@<TRIPOS>ATOM
       1 CH           4.9100     1.6740    -0.2670 c3            1 MOL       -0.156612
       2 CG           4.9640     0.2420     0.2760 c3            1 MOL        0.160110
       3 CY           3.6930    -0.5250     0.0170 c2            1 MOL       -0.258434
       4 CE           2.9170    -1.0360     0.9550 c2            1 MOL       -0.247090
       5 CD           1.6510    -1.8440     0.7770 c3            1 MOL        0.042590
       6 CC           0.9880    -1.8260    -0.6060 c3            1 MOL       -0.015962
       7 CB           0.3670    -0.4880    -1.0320 c3            1 MOL       -0.083342
       8 CA          -0.8440    -0.0530    -0.2060 c3            1 MOL       -0.001988
       9 N           -1.2520     1.2880    -0.6060 ns            1 MOL       -0.651345
      10 C9          -1.8630     2.1480     0.2340 c             1 MOL        0.847171
      11 C10         -2.2240     3.5000    -0.3390 c3            1 MOL       -0.508826
      12 O1          -2.1190     1.8650     1.3790 o             1 MOL       -0.643985
      13 C           -2.0390    -1.0030    -0.3760 c             1 MOL        0.693695
      14 O           -2.1890    -1.6660    -1.3690 o             1 MOL       -0.584018
      15 N2          -2.8970    -1.0140     0.6610 ns            1 MOL       -0.540607
      16 C12         -4.1480    -1.7350     0.5880 c3            1 MOL       -0.224498
      17 HH1          4.7240     1.6800    -1.3370 hc            1 MOL        0.037291
      18 HH2          5.8470     2.1930    -0.0920 hc            1 MOL        0.037291
      19 HH3          4.1160     2.2390     0.2110 hc            1 MOL        0.037291
      20 HG1          5.1670     0.2630     1.3430 hc            1 MOL       -0.003576
      21 HG2          5.7980    -0.2790    -0.1900 hc            1 MOL       -0.003576
      22 HF           3.4300    -0.6400    -1.0230 ha            1 MOL        0.153247
      23 HE           3.2150    -0.9050     1.9850 ha            1 MOL        0.154147
      24 HD1          1.8810    -2.8780     1.0290 hc            1 MOL        0.022866
      25 HD2          0.9380    -1.5280     1.5350 hc            1 MOL        0.022866
      26 HC1          1.7170    -2.1160    -1.3560 hc            1 MOL        0.030735
      27 HC2          0.2210    -2.5910    -0.6320 hc            1 MOL        0.030735
      28 HB1          1.1050     0.3030    -0.9670 hc            1 MOL        0.041954
      29 HB2          0.0590    -0.5690    -2.0690 hc            1 MOL        0.041954
      30 HA          -0.5870     0.0090     0.8400 h1            1 MOL        0.088420
      31 H           -1.1470     1.5370    -1.5630 hn            1 MOL        0.340760
      32 H16         -1.7820     3.6890    -1.3090 hc            1 MOL        0.140184
      33 H17         -1.9040     4.2640     0.3580 hc            1 MOL        0.140184
      34 H18         -3.3030     3.5620    -0.4240 hc            1 MOL        0.140184
      35 H19         -2.8030    -0.2880     1.3390 hn            1 MOL        0.356695
      36 H20         -4.5930    -1.7580     1.5740 h1            1 MOL        0.121163
      37 H21         -3.9680    -2.7490     0.2600 h1            1 MOL        0.121163
      38 H22         -4.8460    -1.2730    -0.1030 h1            1 MOL        0.121163
@<TRIPOS>BOND
       1        1        2 1
       2        1       17 1
       3        1       18 1
       4        1       19 1
       5        2        3 1
       6        2       20 1
       7        2       21 1
       8        3        4 2
       9        3       22 1
      10        4        5 1
      11        4       23 1
      12        5        6 1
      13        5       24 1
      14        5       25 1
      15        6        7 1
      16        6       26 1
      17        6       27 1
      18        7        8 1
      19        7       28 1
      20        7       29 1
      21        8        9 1
      22        8       13 1
      23        8       30 1
      24        9       10 1
      25        9       31 1
      26       10       11 1
      27       10       12 2
      28       11       32 1
      29       11       33 1
      30       11       34 1
      31       13       14 2
      32       13       15 1
      33       15       16 1
      34       15       35 1
      35       16       36 1
      36       16       37 1
      37       16       38 1
@<TRIPOS>SUBSTRUCTURE
       1 MOL             1 RESIDUE    0 **** ROOT      0
