@<TRIPOS>MOLECULE
MOL
64 63 1 0 1
SMALL
USER_CHARGES
@<TRIPOS>ATOM
       1 C1           6.1320     3.1090     0.9200 CT            1 MOL       -0.284167
       2 N1           5.6120     2.0810     0.0410 N             1 MOL       -0.620398
       3 C            5.2290     0.8940     0.5570 C             1 MOL        0.888793
       4 O            5.1350     0.7030     1.7400 O             1 MOL       -0.635612
       5 CA           4.8200    -0.2330    -0.4230 CX            1 MOL        0.036955
       6 C1B          5.0000     0.0900    -1.9110 CU            1 MOL       -0.407559
       7 C2B          3.3510    -0.5970    -0.1140 CU            1 MOL       -0.051478
       8 CC           2.3190     0.5050    -0.3680 CU            1 MOL       -0.066662
       9 CD           0.9090     0.0680     0.0560 CU            1 MOL        0.131044
      10 CE          -0.1070     1.1640    -0.1350 CM            1 MOL       -0.278227
      11 CY          -1.1610     1.1760    -0.9340 CM            1 MOL       -0.278227
      12 CG          -1.6250     0.0820    -1.8660 CU            1 MOL        0.131044
      13 CH          -2.8090    -0.7440    -1.3310 CU            1 MOL       -0.066662
      14 CI          -4.0830     0.0880    -1.1480 CU            1 MOL       -0.051478
      15 CJ          -5.3020    -0.6950    -0.6070 CT            1 MOL        0.036955
      16 C14         -5.7510    -1.7670    -1.6040 CT            1 MOL       -0.407559
      17 N2          -6.4650     0.2060    -0.4610 N             1 MOL       -0.713652
      18 C15         -6.5500     1.4080     0.1420 C             1 MOL        0.826129
      19 C16         -7.8990     2.0900     0.0510 CT            1 MOL       -0.359705
      20 O2          -5.6440     1.9360     0.7420 O             1 MOL       -0.632185
      21 C17         -4.9670    -1.3880     0.7370 C             1 MOL        0.888793
      22 O3          -4.9460    -2.5890     0.8230 O             1 MOL       -0.635612
      23 N3          -4.6720    -0.5870     1.7710 N             1 MOL       -0.620398
      24 C18         -4.3530    -1.1370     3.0700 CT            1 MOL       -0.284167
      25 N            5.6090    -1.4190    -0.0870 N             1 MOL       -0.713652
      26 C19          6.9640    -1.3880     0.0030 C             1 MOL        0.826129
      27 C20          7.5990    -2.6080     0.6300 CT            1 MOL       -0.359705
      28 O4           7.6170    -0.4530    -0.3790 O             1 MOL       -0.632185
      29 H1           6.2690     4.0170     0.3460 H1            1 MOL        0.136665
      30 H2           7.0790     2.8200     1.3630 H1            1 MOL        0.136665
      31 H3           5.4250     3.2990     1.7130 H1            1 MOL        0.136665
      32 H4           5.9650     2.0740    -0.8870 H             1 MOL        0.392906
      33 HB1          6.0440     0.2250    -2.1590 HC            1 MOL        0.123817
      34 HB2          4.6240    -0.7400    -2.4980 HC            1 MOL        0.123817
      35 HB3          4.4510     0.9790    -2.1970 HC            1 MOL        0.123817
      36 HB4          3.3000    -0.8870     0.9300 HC            1 MOL        0.047755
      37 HB5          3.0980    -1.4710    -0.7090 HC            1 MOL        0.047755
      38 HC1          2.5930     1.4020     0.1800 HC            1 MOL        0.027495
      39 HC2          2.2980     0.7740    -1.4190 HC            1 MOL        0.027495
      40 HD1          0.6260    -0.8260    -0.4880 HC            1 MOL        0.014145
      41 HD2          0.9290    -0.2060     1.1090 HC            1 MOL        0.014145
      42 HE           0.0690     2.0440     0.4650 HA            1 MOL        0.148690
      43 HF          -1.7730     2.0640    -0.9230 HA            1 MOL        0.148690
      44 HG1         -0.8090    -0.5970    -2.0870 HC            1 MOL        0.014145
      45 HG2         -1.9090     0.5320    -2.8150 HC            1 MOL        0.014145
      46 HH1         -2.9890    -1.5580    -2.0270 HC            1 MOL        0.027495
      47 HH2         -2.5200    -1.1970    -0.3880 HC            1 MOL        0.027495
      48 HI1         -4.3780     0.5140    -2.1050 HC            1 MOL        0.047755
      49 HI2         -3.8800     0.9180    -0.4890 HC            1 MOL        0.047755
      50 H22         -5.9590    -1.3070    -2.5660 HC            1 MOL        0.123817
      51 H23         -4.9940    -2.5240    -1.7300 HC            1 MOL        0.123817
      52 H24         -6.6430    -2.2710    -1.2510 HC            1 MOL        0.123817
      53 H25         -7.3040    -0.1360    -0.8690 H             1 MOL        0.367567
      54 H26         -7.7410     3.1200    -0.2390 HC            1 MOL        0.099109
      55 H27         -8.5820     1.6200    -0.6460 HC            1 MOL        0.099109
      56 H28         -8.3490     2.0900     1.0380 HC            1 MOL        0.099109
      57 H29         -4.7590     0.4000     1.6640 H             1 MOL        0.392906
      58 H30         -5.1880    -1.6920     3.4810 H1            1 MOL        0.136665
      59 H31         -4.1100    -0.3210     3.7360 H1            1 MOL        0.136665
      60 H32         -3.5030    -1.8050     3.0070 H1            1 MOL        0.136665
      61 H            5.1470    -2.1070     0.4630 H             1 MOL        0.367567
      62 H34          7.6000    -2.4860     1.7090 HC            1 MOL        0.099109
      63 H35          8.6220    -2.6850     0.2910 HC            1 MOL        0.099109
      64 H36          7.0630    -3.5190     0.3890 HC            1 MOL        0.099109
@<TRIPOS>BOND
       1        1        2 1
       2        1       29 1
       3        1       30 1
       4        1       31 1
       5        2        3 1
       6        2       32 1
       7        3        4 2
       8        3        5 1
       9        5        6 1
      10        5        7 1
      11        5       25 1
      12        6       33 1
      13        6       34 1
      14        6       35 1
      15        7        8 1
      16        7       36 1
      17        7       37 1
      18        8        9 1
      19        8       38 1
      20        8       39 1
      21        9       10 1
      22        9       40 1
      23        9       41 1
      24       10       11 2
      25       10       42 1
      26       11       12 1
      27       11       43 1
      28       12       13 1
      29       12       44 1
      30       12       45 1
      31       13       14 1
      32       13       46 1
      33       13       47 1
      34       14       15 1
      35       14       48 1
      36       14       49 1
      37       15       16 1
      38       15       17 1
      39       15       21 1
      40       16       50 1
      41       16       51 1
      42       16       52 1
      43       17       18 1
      44       17       53 1
      45       18       19 1
      46       18       20 2
      47       19       54 1
      48       19       55 1
      49       19       56 1
      50       21       22 2
      51       21       23 1
      52       23       24 1
      53       23       57 1
      54       24       58 1
      55       24       59 1
      56       24       60 1
      57       25       26 1
      58       25       61 1
      59       26       27 1
      60       26       28 2
      61       27       62 1
      62       27       63 1
      63       27       64 1
@<TRIPOS>SUBSTRUCTURE
       1 MOL             1 RESIDUE    0 **** ROOT      0
