@<TRIPOS>MOLECULE
MOL
   64    63     1     0     0
SMALL
resp


@<TRIPOS>ATOM
      1 C1           5.0010    -1.4440     3.0200 CT         1 MOL      -0.515354
      2 N1           5.0960    -0.9890     1.6480 N          1 MOL      -0.563071
      3 C2           4.8040     0.2920     1.3170 C          1 MOL       0.728906
      4 O1           4.5740     1.1290     2.1460 O          1 MOL      -0.588971
      5 C3           4.7720     0.6180    -0.1870 CT         1 MOL       0.355626
      6 C4           5.0540     2.1120    -0.3860 CT         1 MOL      -0.425226
      7 C5           3.3850     0.2130    -0.7600 CT         1 MOL      -0.149378
      8 C6           2.1480     0.7820    -0.0330 CT         1 MOL      -0.107099
      9 C7           1.4870    -0.1970     0.9510 CT         1 MOL       0.092925
     10 C8           0.3140     0.4280     1.6590 CM         1 MOL      -0.285208
     11 C9          -0.9560     0.0550     1.6280 CM         1 MOL      -0.285208
     12 C10         -1.5680    -1.1050     0.8780 CT         1 MOL       0.092925
     13 C11         -2.1810    -0.7290    -0.4820 CT         1 MOL      -0.107099
     14 C12         -3.2370     0.3860    -0.5180 CT         1 MOL      -0.149378
     15 C13         -4.6810     0.1040    -0.0120 CT         1 MOL       0.355626
     16 C14         -4.8070    -0.0690     1.5130 CT         1 MOL      -0.425226
     17 N2          -5.2950    -1.0110    -0.7230 N          1 MOL      -0.796656
     18 C15         -5.1870    -2.3310    -0.4670 C          1 MOL       0.923594
     19 C16         -6.0850    -3.2080    -1.3190 CT         1 MOL      -0.419828
     20 O2          -4.4690    -2.8130     0.3700 O          1 MOL      -0.660968
     21 C17         -5.5160     1.3320    -0.4550 C          1 MOL       0.728906
     22 O3          -6.3120     1.2640    -1.3590 O          1 MOL      -0.588971
     23 N3          -5.2910     2.4870     0.1930 N          1 MOL      -0.563071
     24 C18         -5.9770     3.7060    -0.1840 CT         1 MOL      -0.515354
     25 N4           5.8270    -0.1900    -0.8250 N          1 MOL      -0.796656
     26 C19          6.1060    -0.2090    -2.1610 C          1 MOL       0.923594
     27 C20          7.4240    -0.8700    -2.5140 CT         1 MOL      -0.419828
     28 O4           5.3900     0.2510    -3.0060 O          1 MOL      -0.660968
     29 H1           5.5280    -0.7570     3.6660 H1         1 MOL       0.204804
     30 H2           3.9730    -1.5110     3.3590 H1         1 MOL       0.204804
     31 H3           5.4610    -2.4210     3.0940 H1         1 MOL       0.204804
     32 H4           5.0790    -1.6710     0.9250 H          1 MOL       0.347517
     33 H5           5.0490     2.3400    -1.4430 HC         1 MOL       0.120084
     34 H6           6.0250     2.3690     0.0240 HC         1 MOL       0.120084
     35 H7           4.3190     2.7230     0.1150 HC         1 MOL       0.120084
     36 H8           3.3310    -0.8720    -0.7770 HC         1 MOL       0.057512
     37 H9           3.3790     0.5280    -1.7920 HC         1 MOL       0.057512
     38 H10          1.4080     1.0540    -0.7800 HC         1 MOL       0.059077
     39 H11          2.3960     1.6970     0.4910 HC         1 MOL       0.059077
     40 H12          1.1880    -1.0910     0.4160 HC         1 MOL       0.030960
     41 H13          2.2120    -0.5060     1.6990 HC         1 MOL       0.030960
     42 H14          0.5670     1.2880     2.2600 HA         1 MOL       0.143328
     43 H15         -1.6470     0.6450     2.2100 HA         1 MOL       0.143328
     44 H16         -2.3170    -1.5800     1.4980 HC         1 MOL       0.030960
     45 H17         -0.8180    -1.8660     0.6920 HC         1 MOL       0.030960
     46 H18         -2.5770    -1.6250    -0.9410 HC         1 MOL       0.059077
     47 H19         -1.3700    -0.3870    -1.1220 HC         1 MOL       0.059077
     48 H20         -2.8510     1.2570     0.0030 HC         1 MOL       0.057512
     49 H21         -3.3420     0.6830    -1.5580 HC         1 MOL       0.057512
     50 H22         -5.8510    -0.0360     1.8050 HC         1 MOL       0.120084
     51 H23         -4.2830     0.7180     2.0430 HC         1 MOL       0.120084
     52 H24         -4.4030    -1.0150     1.8250 HC         1 MOL       0.120084
     53 H25         -5.9430    -0.7210    -1.4220 H          1 MOL       0.319657
     54 H26         -5.6120    -4.1720    -1.4430 HC         1 MOL       0.110149
     55 H27         -6.2980    -2.7760    -2.2900 HC         1 MOL       0.110149
     56 H28         -7.0250    -3.3550    -0.7970 HC         1 MOL       0.110149
     57 H29         -4.6240     2.5230     0.9250 H          1 MOL       0.347517
     58 H30         -5.6560     4.4980     0.4790 H1         1 MOL       0.204804
     59 H31         -5.7450     3.9840    -1.2040 H1         1 MOL       0.204804
     60 H32         -7.0490     3.5860    -0.0980 H1         1 MOL       0.204804
     61 H33          6.6060    -0.3960    -0.2380 H          1 MOL       0.319657
     62 H34          8.2270    -0.1480    -2.3990 HC         1 MOL       0.110149
     63 H35          7.3910    -1.1830    -3.5470 HC         1 MOL       0.110149
     64 H36          7.6400    -1.7220    -1.8790 HC         1 MOL       0.110149
@<TRIPOS>BOND
     1     1     2 1   
     2     1    29 1   
     3     1    30 1   
     4     1    31 1   
     5     2     3 1   
     6     2    32 1   
     7     3     4 2   
     8     3     5 1   
     9     5     6 1   
    10     5     7 1   
    11     5    25 1   
    12     6    33 1   
    13     6    34 1   
    14     6    35 1   
    15     7     8 1   
    16     7    36 1   
    17     7    37 1   
    18     8     9 1   
    19     8    38 1   
    20     8    39 1   
    21     9    10 1   
    22     9    40 1   
    23     9    41 1   
    24    10    11 2   
    25    10    42 1   
    26    11    12 1   
    27    11    43 1   
    28    12    13 1   
    29    12    44 1   
    30    12    45 1   
    31    13    14 1   
    32    13    46 1   
    33    13    47 1   
    34    14    15 1   
    35    14    48 1   
    36    14    49 1   
    37    15    16 1   
    38    15    17 1   
    39    15    21 1   
    40    16    50 1   
    41    16    51 1   
    42    16    52 1   
    43    17    18 1   
    44    17    53 1   
    45    18    19 1   
    46    18    20 2   
    47    19    54 1   
    48    19    55 1   
    49    19    56 1   
    50    21    22 2   
    51    21    23 1   
    52    23    24 1   
    53    23    57 1   
    54    24    58 1   
    55    24    59 1   
    56    24    60 1   
    57    25    26 1   
    58    25    61 1   
    59    26    27 1   
    60    26    28 2   
    61    27    62 1   
    62    27    63 1   
    63    27    64 1   
@<TRIPOS>SUBSTRUCTURE
     1 MOL         1 TEMP              0 ****  ****    0 ROOT
