@<TRIPOS>MOLECULE
MOL
   64    63     1     0     0
SMALL
resp


@<TRIPOS>ATOM
      1 C1          -7.5310    -2.6070     0.3540 CT         1 MOL      -0.329049
      2 N1          -6.2730    -1.9170     0.1510 N          1 MOL      -0.547001
      3 C2          -6.2400    -0.5950    -0.1180 C          1 MOL       0.794684
      4 O1          -7.2450     0.0580    -0.1820 O          1 MOL      -0.592722
      5 C3          -4.8480     0.0270    -0.4050 CT         1 MOL       0.096887
      6 C4          -4.5310    -0.3740    -1.8610 CT         1 MOL      -0.373978
      7 C5          -3.7780    -0.5120     0.5890 CT         1 MOL       0.010481
      8 C6          -2.4720     0.2820     0.7540 CT         1 MOL      -0.006007
      9 C7          -1.4490     0.2610    -0.3970 CT         1 MOL      -0.070034
     10 C8          -1.0100    -1.1210    -0.8150 CM         1 MOL      -0.171223
     11 C9           0.0860    -1.7660    -0.4520 CM         1 MOL      -0.348628
     12 C10          1.1870    -1.2940     0.4620 CT         1 MOL       0.223833
     13 C11          2.5400    -1.2130    -0.2600 CT         1 MOL      -0.007097
     14 C12          3.6590    -0.7900     0.6950 CT         1 MOL      -0.461719
     15 C13          5.0730    -0.6410     0.0810 CT         1 MOL       0.305716
     16 C14          5.5860    -1.9690    -0.4860 CT         1 MOL      -0.140749
     17 N2           5.9290    -0.1810     1.1830 N          1 MOL      -0.847508
     18 C15          7.2550     0.1020     1.0430 C          1 MOL       0.870936
     19 C16          8.0290     0.2180     2.3400 CT         1 MOL      -0.441381
     20 O2           7.7720     0.2590    -0.0260 O          1 MOL      -0.618638
     21 C17          5.0030     0.4140    -1.0400 C          1 MOL       0.817562
     22 O3           4.8570     0.0810    -2.1840 O          1 MOL      -0.625328
     23 N3           4.9800     1.7070    -0.6480 N          1 MOL      -0.533803
     24 C18          5.0300     2.7670    -1.6340 CT         1 MOL      -0.326078
     25 N4          -4.9360     1.4760    -0.3990 N          1 MOL      -0.725412
     26 C19         -5.4620     2.3280     0.5410 C          1 MOL       0.827766
     27 C20         -5.6220     1.8590     1.9700 CT         1 MOL      -0.391590
     28 O4          -5.7200     3.4560     0.2310 O          1 MOL      -0.634124
     29 H1          -8.1580    -2.5360    -0.5260 H1         1 MOL       0.146994
     30 H2          -7.3220    -3.6490     0.5560 H1         1 MOL       0.146994
     31 H3          -8.0720    -2.1870     1.1910 H1         1 MOL       0.146994
     32 H4          -5.4310    -2.4370     0.2070 H          1 MOL       0.345371
     33 H5          -3.6310     0.1120    -2.2100 HC         1 MOL       0.114911
     34 H6          -4.3990    -1.4450    -1.9520 HC         1 MOL       0.114911
     35 H7          -5.3490    -0.0810    -2.5110 HC         1 MOL       0.114911
     36 H8          -3.5280    -1.5320     0.3130 HC         1 MOL      -0.009057
     37 H9          -4.2300    -0.5800     1.5730 HC         1 MOL      -0.009057
     38 H10         -1.9800    -0.1260     1.6330 HC         1 MOL       0.021008
     39 H11         -2.7040     1.3150     0.9800 HC         1 MOL       0.021008
     40 H12         -1.8480     0.7850    -1.2580 HC         1 MOL       0.067843
     41 H13         -0.5940     0.8440    -0.0750 HC         1 MOL       0.067843
     42 H14         -1.6750    -1.6360    -1.4900 HA         1 MOL       0.127100
     43 H15          0.2380    -2.7550    -0.8590 HA         1 MOL       0.144185
     44 H16          0.9460    -0.3290     0.8950 HC         1 MOL       0.004086
     45 H17          1.2690    -1.9910     1.2950 HC         1 MOL       0.004086
     46 H18          2.4640    -0.5150    -1.0850 HC         1 MOL       0.046835
     47 H19          2.7680    -2.1800    -0.6960 HC         1 MOL       0.046835
     48 H20          3.3920     0.1560     1.1580 HC         1 MOL       0.103205
     49 H21          3.7290    -1.5230     1.4980 HC         1 MOL       0.103205
     50 H22          5.5640    -2.7260     0.2930 HC         1 MOL       0.050521
     51 H23          4.9780    -2.2970    -1.3150 HC         1 MOL       0.050521
     52 H24          6.6000    -1.8600    -0.8420 HC         1 MOL       0.050521
     53 H25          5.6220    -0.4270     2.0980 H          1 MOL       0.382777
     54 H26          7.4420     0.6750     3.1290 HC         1 MOL       0.119269
     55 H27          8.3240    -0.7740     2.6680 HC         1 MOL       0.119269
     56 H28          8.9210     0.8010     2.1640 HC         1 MOL       0.119269
     57 H29          5.3260     1.9090     0.2600 H          1 MOL       0.332332
     58 H30          4.8480     3.7110    -1.1370 H1         1 MOL       0.145509
     59 H31          4.2620     2.6080    -2.3760 H1         1 MOL       0.145509
     60 H32          5.9910     2.8070    -2.1350 H1         1 MOL       0.145509
     61 H33         -5.0080     1.8950    -1.3010 H          1 MOL       0.374361
     62 H34         -4.6530     1.6650     2.4170 HC         1 MOL       0.112875
     63 H35         -6.1050     2.6540     2.5180 HC         1 MOL       0.112875
     64 H36         -6.2240     0.9640     2.0420 HC         1 MOL       0.112875
@<TRIPOS>BOND
     1     1     2 1   
     2     1    29 1   
     3     1    30 1   
     4     1    31 1   
     5     2     3 1   
     6     2    32 1   
     7     3     4 2   
     8     3     5 1   
     9     5     6 1   
    10     5     7 1   
    11     5    25 1   
    12     6    33 1   
    13     6    34 1   
    14     6    35 1   
    15     7     8 1   
    16     7    36 1   
    17     7    37 1   
    18     8     9 1   
    19     8    38 1   
    20     8    39 1   
    21     9    10 1   
    22     9    40 1   
    23     9    41 1   
    24    10    11 2   
    25    10    42 1   
    26    11    12 1   
    27    11    43 1   
    28    12    13 1   
    29    12    44 1   
    30    12    45 1   
    31    13    14 1   
    32    13    46 1   
    33    13    47 1   
    34    14    15 1   
    35    14    48 1   
    36    14    49 1   
    37    15    16 1   
    38    15    17 1   
    39    15    21 1   
    40    16    50 1   
    41    16    51 1   
    42    16    52 1   
    43    17    18 1   
    44    17    53 1   
    45    18    19 1   
    46    18    20 2   
    47    19    54 1   
    48    19    55 1   
    49    19    56 1   
    50    21    22 2   
    51    21    23 1   
    52    23    24 1   
    53    23    57 1   
    54    24    58 1   
    55    24    59 1   
    56    24    60 1   
    57    25    26 1   
    58    25    61 1   
    59    26    27 1   
    60    26    28 2   
    61    27    62 1   
    62    27    63 1   
    63    27    64 1   
@<TRIPOS>SUBSTRUCTURE
     1 MOL         1 TEMP              0 ****  ****    0 ROOT
