@<TRIPOS>MOLECULE
MOL
   64    63     1     0     0
SMALL
resp


@<TRIPOS>ATOM
      1 C1          -7.1560     2.9420    -0.3780 CT         1 MOL      -0.407649
      2 N1          -6.2500     2.0610     0.3290 N          1 MOL      -0.503555
      3 C2          -5.8000     0.9210    -0.2390 C          1 MOL       0.702851
      4 O1          -6.1700     0.5700    -1.3260 O          1 MOL      -0.564188
      5 C3          -4.7500     0.1080     0.5560 CT         1 MOL      -0.010615
      6 C4          -5.0270     0.1100     2.0710 CT         1 MOL      -0.121042
      7 C5          -3.3860     0.7850     0.2530 CT         1 MOL       0.135901
      8 C6          -2.1700     0.1690     0.9530 CT         1 MOL      -0.029440
      9 C7          -0.8400     0.8170     0.5280 CT         1 MOL      -0.055066
     10 C8          -0.5030     0.6280    -0.9330 CM         1 MOL      -0.234023
     11 C9           0.2690    -0.3040    -1.4680 CM         1 MOL      -0.159084
     12 C10          1.0120    -1.4180    -0.7740 CT         1 MOL       0.005455
     13 C11          2.5280    -1.3860    -1.0300 CT         1 MOL      -0.006860
     14 C12          3.2050    -0.1730    -0.3860 CT         1 MOL       0.079160
     15 C13          4.7490    -0.1290    -0.4720 CT         1 MOL      -0.052719
     16 C14          5.2180    -0.2000    -1.9310 CT         1 MOL      -0.254539
     17 N2           5.2800    -1.2610     0.2830 N          1 MOL      -0.678816
     18 C15          6.6070    -1.3490     0.5850 C          1 MOL       0.881472
     19 C16          6.9540    -2.3580     1.6560 CT         1 MOL      -0.381300
     20 O2           7.4420    -0.6760     0.0450 O          1 MOL      -0.619815
     21 C17          5.1550     1.1650     0.2730 C          1 MOL       0.802671
     22 O3           5.0360     1.2200     1.4690 O          1 MOL      -0.627931
     23 N3           5.5380     2.2280    -0.4630 N          1 MOL      -0.561619
     24 C18          5.9940     3.4390     0.1890 CT         1 MOL      -0.282975
     25 N4          -4.6650    -1.2450     0.0330 N          1 MOL      -0.734852
     26 C19         -5.6560    -2.1770    -0.1540 C          1 MOL       0.889745
     27 C20         -6.9440    -2.0670     0.6300 CT         1 MOL      -0.512488
     28 O4          -5.4590    -3.1070    -0.8840 O          1 MOL      -0.641496
     29 H1          -7.4410     3.7470     0.2850 H1         1 MOL       0.167510
     30 H2          -8.0440     2.4060    -0.6840 H1         1 MOL       0.167510
     31 H3          -6.6900     3.3600    -1.2620 H1         1 MOL       0.167510
     32 H4          -5.9060     2.3450     1.2140 H          1 MOL       0.348551
     33 H5          -6.0670    -0.0810     2.3010 HC         1 MOL       0.037001
     34 H6          -4.7600     1.0620     2.5210 HC         1 MOL       0.037001
     35 H7          -4.4300    -0.6540     2.5490 HC         1 MOL       0.037001
     36 H8          -3.2480     0.7610    -0.8230 HC         1 MOL      -0.009995
     37 H9          -3.4560     1.8340     0.5290 HC         1 MOL      -0.009995
     38 H10         -2.2720     0.2830     2.0280 HC         1 MOL       0.039022
     39 H11         -2.1220    -0.8960     0.7560 HC         1 MOL       0.039022
     40 H12         -0.0510     0.4130     1.1520 HC         1 MOL       0.045947
     41 H13         -0.8780     1.8820     0.7420 HC         1 MOL       0.045947
     42 H14         -0.9580     1.3330    -1.6100 HA         1 MOL       0.124480
     43 H15          0.3920    -0.2900    -2.5410 HA         1 MOL       0.109921
     44 H16          0.8210    -1.4100     0.2930 HC         1 MOL       0.040235
     45 H17          0.6250    -2.3650    -1.1460 HC         1 MOL       0.040235
     46 H18          2.7020    -1.3910    -2.1020 HC         1 MOL       0.013026
     47 H19          2.9630    -2.3050    -0.6470 HC         1 MOL       0.013026
     48 H20          2.9360    -0.1220     0.6650 HC         1 MOL       0.008659
     49 H21          2.8220     0.7360    -0.8390 HC         1 MOL       0.008659
     50 H22          4.9970    -1.1790    -2.3340 HC         1 MOL       0.083622
     51 H23          4.7010     0.5350    -2.5400 HC         1 MOL       0.083622
     52 H24          6.2850    -0.0500    -2.0110 HC         1 MOL       0.083622
     53 H25          4.6680    -1.6190     0.9820 H          1 MOL       0.343215
     54 H26          6.7970    -1.9010     2.6290 HC         1 MOL       0.099739
     55 H27          7.9970    -2.6250     1.5640 HC         1 MOL       0.099739
     56 H28          6.3380    -3.2480     1.5920 HC         1 MOL       0.099739
     57 H29          5.8610     2.0640    -1.3870 H          1 MOL       0.361366
     58 H30          6.9310     3.2860     0.7140 H1         1 MOL       0.137147
     59 H31          6.1280     4.2070    -0.5610 H1         1 MOL       0.137147
     60 H32          5.2530     3.7690     0.9020 H1         1 MOL       0.137147
     61 H33         -3.9610    -1.3780    -0.6600 H          1 MOL       0.362817
     62 H34         -7.6210    -2.8160     0.2470 HC         1 MOL       0.147875
     63 H35         -7.4050    -1.0930     0.5380 HC         1 MOL       0.147875
     64 H36         -6.7600    -2.2670     1.6800 HC         1 MOL       0.147875
@<TRIPOS>BOND
     1     1     2 1   
     2     1    29 1   
     3     1    30 1   
     4     1    31 1   
     5     2     3 1   
     6     2    32 1   
     7     3     4 2   
     8     3     5 1   
     9     5     6 1   
    10     5     7 1   
    11     5    25 1   
    12     6    33 1   
    13     6    34 1   
    14     6    35 1   
    15     7     8 1   
    16     7    36 1   
    17     7    37 1   
    18     8     9 1   
    19     8    38 1   
    20     8    39 1   
    21     9    10 1   
    22     9    40 1   
    23     9    41 1   
    24    10    11 2   
    25    10    42 1   
    26    11    12 1   
    27    11    43 1   
    28    12    13 1   
    29    12    44 1   
    30    12    45 1   
    31    13    14 1   
    32    13    46 1   
    33    13    47 1   
    34    14    15 1   
    35    14    48 1   
    36    14    49 1   
    37    15    16 1   
    38    15    17 1   
    39    15    21 1   
    40    16    50 1   
    41    16    51 1   
    42    16    52 1   
    43    17    18 1   
    44    17    53 1   
    45    18    19 1   
    46    18    20 2   
    47    19    54 1   
    48    19    55 1   
    49    19    56 1   
    50    21    22 2   
    51    21    23 1   
    52    23    24 1   
    53    23    57 1   
    54    24    58 1   
    55    24    59 1   
    56    24    60 1   
    57    25    26 1   
    58    25    61 1   
    59    26    27 1   
    60    26    28 2   
    61    27    62 1   
    62    27    63 1   
    63    27    64 1   
@<TRIPOS>SUBSTRUCTURE
     1 MOL         1 TEMP              0 ****  ****    0 ROOT
