@<TRIPOS>MOLECULE
MOL
64 63 1 0 1
SMALL
USER_CHARGES
@<TRIPOS>ATOM
       1 C1          -8.1120     0.1990    -0.2240 CT            1 MOL       -0.287678
       2 N1          -6.7350     0.1580    -0.6740 N             1 MOL       -0.596983
       3 C           -5.7520    -0.1720     0.1880 C             1 MOL        0.830853
       4 O           -5.9770    -0.5780     1.2970 O             1 MOL       -0.628916
       5 CA          -4.2900    -0.1330    -0.3230 CX            1 MOL        0.017056
       6 C1B         -4.0850     0.6900    -1.6010 CU            1 MOL       -0.348251
       7 C2B         -3.9250    -1.6210    -0.5600 CU            1 MOL       -0.024061
       8 CC          -2.5830    -1.9570    -1.2280 CU            1 MOL        0.004216
       9 CD          -1.3150    -1.6540    -0.4150 CU            1 MOL        0.316266
      10 CE          -0.0860    -2.2240    -1.0750 CM            1 MOL       -0.399152
      11 CY           0.9660    -1.5800    -1.5550 CM            1 MOL       -0.152837
      12 CG           1.2180    -0.0920    -1.5600 CU            1 MOL        0.069927
      13 CH           2.3520     0.3490    -0.6180 CU            1 MOL       -0.051692
      14 CI           3.7370    -0.1360    -1.0600 CU            1 MOL       -0.221348
      15 CJ           4.8860     0.2210    -0.0890 CT            1 MOL        0.488545
      16 C14          6.2600    -0.1460    -0.6830 CT            1 MOL       -0.671973
      17 N2           4.7020    -0.4790     1.1780 N             1 MOL       -0.690529
      18 C15          4.6960    -1.8150     1.3540 C             1 MOL        0.856886
      19 C16          4.5710    -2.2720     2.7940 CT            1 MOL       -0.411220
      20 O2           4.7930    -2.6190     0.4610 O             1 MOL       -0.652722
      21 C17          4.8990     1.7180     0.3020 C             1 MOL        0.498006
      22 O3           4.8650     2.0400     1.4650 O             1 MOL       -0.590745
      23 N3           5.0120     2.6890    -0.6360 N             1 MOL       -0.514227
      24 C18          4.8650     2.6920    -2.0780 CT            1 MOL       -0.059316
      25 N           -3.4650     0.3980     0.7580 N             1 MOL       -0.565394
      26 C19         -3.7510     1.5990     1.3390 C             1 MOL        0.799344
      27 C20         -3.0690     1.8470     2.6650 CT            1 MOL       -0.343138
      28 O4          -4.4910     2.4010     0.8400 O             1 MOL       -0.611971
      29 H1          -8.7520     0.3530    -1.0830 H1            1 MOL        0.139714
      30 H2          -8.2790     0.9970     0.4920 H1            1 MOL        0.139714
      31 H3          -8.3700    -0.7390     0.2430 H1            1 MOL        0.139714
      32 H4          -6.5000     0.7190    -1.4580 H             1 MOL        0.373243
      33 HB1         -4.5660     0.2140    -2.4500 HC            1 MOL        0.103243
      34 HB2         -3.0280     0.7620    -1.8190 HC            1 MOL        0.103243
      35 HB3         -4.4630     1.6960    -1.4880 HC            1 MOL        0.103243
      36 HB4         -4.7100    -2.0360    -1.1860 HC            1 MOL        0.018952
      37 HB5         -4.0020    -2.1390     0.3920 HC            1 MOL        0.018952
      38 HC1         -2.5090    -1.4730    -2.1960 HC            1 MOL       -0.002571
      39 HC2         -2.6040    -3.0250    -1.4350 HC            1 MOL       -0.002571
      40 HD1         -1.2150    -0.5890    -0.2580 HC            1 MOL       -0.033755
      41 HD2         -1.4150    -2.1060     0.5720 HC            1 MOL       -0.033755
      42 HE          -0.0840    -3.3000    -1.1610 HA            1 MOL        0.159880
      43 HF           1.7460    -2.1800    -1.9930 HA            1 MOL        0.123624
      44 HG1          0.3180     0.4460    -1.2890 HC            1 MOL        0.012949
      45 HG2          1.4620     0.2170    -2.5760 HC            1 MOL        0.012949
      46 HH1          2.1400    -0.0120     0.3830 HC            1 MOL        0.025271
      47 HH2          2.3420     1.4350    -0.5640 HC            1 MOL        0.025271
      48 HI1          3.7460    -1.2120    -1.1490 HC            1 MOL        0.088988
      49 HI2          3.9580     0.2550    -2.0460 HC            1 MOL        0.088988
      50 H22          6.2970    -1.2100    -0.8630 HC            1 MOL        0.182818
      51 H23          6.4530     0.3670    -1.6160 HC            1 MOL        0.182818
      52 H24          7.0470     0.1150     0.0170 HC            1 MOL        0.182818
      53 H25          4.6700     0.1150     1.9760 H             1 MOL        0.332186
      54 H26          5.5280    -2.6700     3.1120 HC            1 MOL        0.109302
      55 H27          4.2760    -1.4830     3.4740 HC            1 MOL        0.109302
      56 H28          3.8490    -3.0770     2.8380 HC            1 MOL        0.109302
      57 H29          5.0060     3.5870    -0.2030 H             1 MOL        0.351999
      58 H30          3.8340     2.5810    -2.3940 H1            1 MOL        0.069436
      59 H31          5.2250     3.6480    -2.4340 H1            1 MOL        0.069436
      60 H32          5.4600     1.9270    -2.5490 H1            1 MOL        0.069436
      61 H           -3.1070    -0.2900     1.3830 H             1 MOL        0.285096
      62 H34         -3.0450     2.9100     2.8560 HC            1 MOL        0.093939
      63 H35         -3.6460     1.3650     3.4480 HC            1 MOL        0.093939
      64 H36         -2.0620     1.4460     2.6860 HC            1 MOL        0.093939
@<TRIPOS>BOND
       1        1        2 1
       2        1       29 1
       3        1       30 1
       4        1       31 1
       5        2        3 1
       6        2       32 1
       7        3        4 2
       8        3        5 1
       9        5        6 1
      10        5        7 1
      11        5       25 1
      12        6       33 1
      13        6       34 1
      14        6       35 1
      15        7        8 1
      16        7       36 1
      17        7       37 1
      18        8        9 1
      19        8       38 1
      20        8       39 1
      21        9       10 1
      22        9       40 1
      23        9       41 1
      24       10       11 2
      25       10       42 1
      26       11       12 1
      27       11       43 1
      28       12       13 1
      29       12       44 1
      30       12       45 1
      31       13       14 1
      32       13       46 1
      33       13       47 1
      34       14       15 1
      35       14       48 1
      36       14       49 1
      37       15       16 1
      38       15       17 1
      39       15       21 1
      40       16       50 1
      41       16       51 1
      42       16       52 1
      43       17       18 1
      44       17       53 1
      45       18       19 1
      46       18       20 2
      47       19       54 1
      48       19       55 1
      49       19       56 1
      50       21       22 2
      51       21       23 1
      52       23       24 1
      53       23       57 1
      54       24       58 1
      55       24       59 1
      56       24       60 1
      57       25       26 1
      58       25       61 1
      59       26       27 1
      60       26       28 2
      61       27       62 1
      62       27       63 1
      63       27       64 1
@<TRIPOS>SUBSTRUCTURE
       1 MOL             1 RESIDUE    0 **** ROOT      0
