@<TRIPOS>MOLECULE
MOL
64 63 1 0 1
SMALL
USER_CHARGES
@<TRIPOS>ATOM
       1 C1           7.2670    -2.8050    -0.5010 CT            1 MOL       -0.266190
       2 N1           6.1260    -1.9690    -0.1870 N             1 MOL       -0.569851
       3 C            6.2950    -0.8470     0.5410 C             1 MOL        0.835115
       4 O            7.3380    -0.5800     1.0770 O             1 MOL       -0.618368
       5 CA           5.0700     0.0740     0.7830 CX            1 MOL        0.067660
       6 C1B          4.7070    -0.1020     2.2660 CU            1 MOL       -0.290853
       7 C2B          3.8570    -0.2340    -0.1200 CU            1 MOL       -0.113420
       8 CC           2.6480     0.6880     0.0760 CU            1 MOL        0.129193
       9 CD           1.5440     0.4680    -0.9730 CU            1 MOL        0.093814
      10 CE           0.9410    -0.9150    -0.9540 CM            1 MOL       -0.245296
      11 CY          -0.2190    -1.2900    -0.4390 CM            1 MOL       -0.245296
      12 CG          -1.2520    -0.4410     0.2550 CU            1 MOL        0.093814
      13 CH          -2.5990    -0.4560    -0.4820 CU            1 MOL        0.129193
      14 CI          -3.6510     0.3780     0.2540 CU            1 MOL       -0.113420
      15 CJ          -5.0790     0.3740    -0.3460 CT            1 MOL        0.067660
      16 C14         -5.0930     0.9180    -1.7770 CT            1 MOL       -0.290853
      17 N2          -5.8770     1.2290     0.5440 N             1 MOL       -0.731498
      18 C15         -7.2100     1.4600     0.3770 C             1 MOL        0.833048
      19 C16         -7.7650     2.6260     1.1660 CT            1 MOL       -0.292813
      20 O2          -7.8980     0.7830    -0.3330 O             1 MOL       -0.614233
      21 C17         -5.6030    -1.0750    -0.3310 C             1 MOL        0.835115
      22 O3          -5.5020    -1.7720    -1.3030 O             1 MOL       -0.618368
      23 N3          -6.0480    -1.5420     0.8570 N             1 MOL       -0.569851
      24 C18         -6.6660    -2.8490     0.9390 CT            1 MOL       -0.266190
      25 N            5.5210     1.4520     0.6100 N             1 MOL       -0.731498
      26 C19          6.1630     1.8560    -0.5200 C             1 MOL        0.833048
      27 C20          6.8760     3.1850    -0.4170 CT            1 MOL       -0.292813
      28 O4           6.1680     1.2040    -1.5290 O             1 MOL       -0.614233
      29 H1           7.7820    -3.0730     0.4100 H1            1 MOL        0.132602
      30 H2           6.9120    -3.7070    -0.9830 H1            1 MOL        0.132602
      31 H3           7.9680    -2.3020    -1.1570 H1            1 MOL        0.132602
      32 H4           5.3580    -2.0050    -0.8140 H             1 MOL        0.341894
      33 HB1          3.9440     0.6080     2.5620 HC            1 MOL        0.097124
      34 HB2          5.5830     0.0440     2.8850 HC            1 MOL        0.097124
      35 HB3          4.3290    -1.1020     2.4460 HC            1 MOL        0.097124
      36 HB4          3.5490    -1.2570     0.0730 HC            1 MOL        0.018802
      37 HB5          4.1710    -0.1710    -1.1550 HC            1 MOL        0.018802
      38 HC1          2.9740     1.7210     0.0190 HC            1 MOL       -0.010406
      39 HC2          2.2180     0.5430     1.0630 HC            1 MOL       -0.010406
      40 HD1          1.9590     0.6520    -1.9620 HC            1 MOL        0.004674
      41 HD2          0.7760     1.2180    -0.8240 HC            1 MOL        0.004674
      42 HE           1.5390    -1.6840    -1.4170 HA            1 MOL        0.129722
      43 HF          -0.4850    -2.3330    -0.5230 HA            1 MOL        0.129722
      44 HG1         -1.3980    -0.8280     1.2630 HC            1 MOL        0.004674
      45 HG2         -0.9050     0.5800     0.3670 HC            1 MOL        0.004674
      46 HH1         -2.9410    -1.4780    -0.5920 HC            1 MOL       -0.010406
      47 HH2         -2.4520    -0.0720    -1.4860 HC            1 MOL       -0.010406
      48 HI1         -3.7180     0.0380     1.2840 HC            1 MOL        0.018802
      49 HI2         -3.3140     1.4130     0.2860 HC            1 MOL        0.018802
      50 H22         -6.1060     0.9780    -2.1480 HC            1 MOL        0.097124
      51 H23         -4.5350     0.2750    -2.4410 HC            1 MOL        0.097124
      52 H24         -4.6520     1.9110    -1.7910 HC            1 MOL        0.097124
      53 H25         -5.3670     1.9230     1.0450 H             1 MOL        0.363095
      54 H26         -7.3010     2.7210     2.1420 HC            1 MOL        0.077888
      55 H27         -7.5880     3.5450     0.6160 HC            1 MOL        0.077888
      56 H28         -8.8310     2.4960     1.2810 HC            1 MOL        0.077888
      57 H29         -6.3100    -0.8670     1.5360 H             1 MOL        0.341894
      58 H30         -6.0150    -3.5870     0.4940 H1            1 MOL        0.132602
      59 H31         -6.8170    -3.0960     1.9820 H1            1 MOL        0.132602
      60 H32         -7.6200    -2.8770     0.4250 H1            1 MOL        0.132602
      61 H            5.7960     1.9150     1.4480 H             1 MOL        0.363095
      62 H34          6.3350     3.8910     0.2030 HC            1 MOL        0.077888
      63 H35          7.0070     3.5930    -1.4080 HC            1 MOL        0.077888
      64 H36          7.8550     3.0210     0.0240 HC            1 MOL        0.077888
@<TRIPOS>BOND
       1        1        2 1
       2        1       29 1
       3        1       30 1
       4        1       31 1
       5        2        3 1
       6        2       32 1
       7        3        4 2
       8        3        5 1
       9        5        6 1
      10        5        7 1
      11        5       25 1
      12        6       33 1
      13        6       34 1
      14        6       35 1
      15        7        8 1
      16        7       36 1
      17        7       37 1
      18        8        9 1
      19        8       38 1
      20        8       39 1
      21        9       10 1
      22        9       40 1
      23        9       41 1
      24       10       11 2
      25       10       42 1
      26       11       12 1
      27       11       43 1
      28       12       13 1
      29       12       44 1
      30       12       45 1
      31       13       14 1
      32       13       46 1
      33       13       47 1
      34       14       15 1
      35       14       48 1
      36       14       49 1
      37       15       16 1
      38       15       17 1
      39       15       21 1
      40       16       50 1
      41       16       51 1
      42       16       52 1
      43       17       18 1
      44       17       53 1
      45       18       19 1
      46       18       20 2
      47       19       54 1
      48       19       55 1
      49       19       56 1
      50       21       22 2
      51       21       23 1
      52       23       24 1
      53       23       57 1
      54       24       58 1
      55       24       59 1
      56       24       60 1
      57       25       26 1
      58       25       61 1
      59       26       27 1
      60       26       28 2
      61       27       62 1
      62       27       63 1
      63       27       64 1
@<TRIPOS>SUBSTRUCTURE
       1 MOL             1 RESIDUE    0 **** ROOT      0
