@<TRIPOS>MOLECULE
MOL
   64    63     1     0     0
SMALL
resp


@<TRIPOS>ATOM
      1 C1           4.6180     4.0620     0.5380 CT         1 MOL      -0.487151
      2 N1           4.3680     2.7830    -0.0950 N          1 MOL      -0.558861
      3 C2           4.9500     1.6560     0.3510 C          1 MOL       0.838645
      4 O1           5.6870     1.6630     1.3050 O          1 MOL      -0.623214
      5 C3           4.6320     0.3600    -0.4230 CT         1 MOL      -0.000855
      6 C4           5.1420     0.5010    -1.8700 CT         1 MOL      -0.368112
      7 C5           3.1120     0.0750    -0.4120 CT         1 MOL      -0.039141
      8 C6           2.4880    -0.0520     0.9790 CT         1 MOL       0.004107
      9 C7           0.9670    -0.2720     0.9370 CT         1 MOL       0.025290
     10 C8           0.5730    -1.5870     0.3140 CM         1 MOL      -0.221360
     11 C9          -0.2100    -1.8080    -0.7290 CM         1 MOL      -0.221360
     12 C10         -0.9260    -0.8090    -1.6030 CT         1 MOL       0.025290
     13 C11         -2.4530    -0.9900    -1.6140 CT         1 MOL       0.004107
     14 C12         -3.0880    -0.6730    -0.2570 CT         1 MOL      -0.039141
     15 C13         -4.6300    -0.7250    -0.2180 CT         1 MOL      -0.000855
     16 C14         -5.1360    -2.1560    -0.4630 CT         1 MOL      -0.368112
     17 N2          -5.2180     0.1200    -1.2530 N          1 MOL      -0.667175
     18 C15         -5.1620     1.4800    -1.1810 C          1 MOL       0.878567
     19 C16         -6.1200     2.2110    -2.0930 CT         1 MOL      -0.303583
     20 O2          -4.4080     2.0600    -0.4480 O          1 MOL      -0.648972
     21 C17         -5.2430    -0.2940     1.1390 C          1 MOL       0.838645
     22 O3          -6.4230    -0.0680     1.2040 O          1 MOL      -0.623214
     23 N3          -4.4490    -0.2830     2.2270 N          1 MOL      -0.558861
     24 C18         -4.9670     0.1690     3.5020 CT         1 MOL      -0.487151
     25 N4           5.3760    -0.6780     0.2740 N          1 MOL      -0.667175
     26 C19          5.4260    -1.9820    -0.0650 C          1 MOL       0.878567
     27 C20          6.3370    -2.8340     0.7950 CT         1 MOL      -0.303583
     28 O4           4.8210    -2.4620    -0.9900 O          1 MOL      -0.648972
     29 H1           5.6630     4.3360     0.4630 H1         1 MOL       0.193420
     30 H2           4.3480     4.0300     1.5850 H1         1 MOL       0.193420
     31 H3           4.0200     4.8130     0.0410 H1         1 MOL       0.193420
     32 H4           3.7840     2.7530    -0.8960 H          1 MOL       0.360882
     33 H5           4.5950     1.2640    -2.4140 HC         1 MOL       0.119414
     34 H6           6.1940     0.7660    -1.8760 HC         1 MOL       0.119414
     35 H7           5.0170    -0.4390    -2.3870 HC         1 MOL       0.119414
     36 H8           2.9500    -0.8350    -0.9730 HC         1 MOL       0.045078
     37 H9           2.6050     0.8670    -0.9590 HC         1 MOL       0.045078
     38 H10          2.6860     0.8430     1.5630 HC         1 MOL       0.008593
     39 H11          2.9540    -0.8750     1.5120 HC         1 MOL       0.008593
     40 H12          0.4940     0.5610     0.4290 HC         1 MOL       0.028664
     41 H13          0.5980    -0.2540     1.9610 HC         1 MOL       0.028664
     42 H14          1.0040    -2.4510     0.7970 HA         1 MOL       0.132015
     43 H15         -0.3670    -2.8370    -1.0150 HA         1 MOL       0.132015
     44 H16         -0.5650    -0.9330    -2.6230 HC         1 MOL       0.028664
     45 H17         -0.6890     0.2090    -1.3160 HC         1 MOL       0.028664
     46 H18         -2.6830    -2.0080    -1.9160 HC         1 MOL       0.008593
     47 H19         -2.8730    -0.3370    -2.3700 HC         1 MOL       0.008593
     48 H20         -2.7660     0.3160     0.0450 HC         1 MOL       0.045078
     49 H21         -2.7080    -1.3810     0.4740 HC         1 MOL       0.045078
     50 H22         -6.2140    -2.1940    -0.3690 HC         1 MOL       0.119414
     51 H23         -4.7090    -2.8370     0.2650 HC         1 MOL       0.119414
     52 H24         -4.8600    -2.4980    -1.4540 HC         1 MOL       0.119414
     53 H25         -6.0430    -0.2460    -1.6730 H          1 MOL       0.343212
     54 H26         -7.0910     2.2590    -1.6090 HC         1 MOL       0.077511
     55 H27         -6.2380     1.7090    -3.0470 HC         1 MOL       0.077511
     56 H28         -5.7610     3.2170    -2.2500 HC         1 MOL       0.077511
     57 H29         -3.4670    -0.2420     2.0950 H          1 MOL       0.360882
     58 H30         -5.2050     1.2270     3.4880 H1         1 MOL       0.193420
     59 H31         -5.8640    -0.3800     3.7470 H1         1 MOL       0.193420
     60 H32         -4.2210    -0.0170     4.2640 H1         1 MOL       0.193420
     61 H33          5.9120    -0.3540     1.0480 H          1 MOL       0.343212
     62 H34          7.2640    -3.0000     0.2560 HC         1 MOL       0.077511
     63 H35          5.8670    -3.7950     0.9520 HC         1 MOL       0.077511
     64 H36          6.5700    -2.3820     1.7520 HC         1 MOL       0.077511
@<TRIPOS>BOND
     1     1     2 1   
     2     1    29 1   
     3     1    30 1   
     4     1    31 1   
     5     2     3 1   
     6     2    32 1   
     7     3     4 2   
     8     3     5 1   
     9     5     6 1   
    10     5     7 1   
    11     5    25 1   
    12     6    33 1   
    13     6    34 1   
    14     6    35 1   
    15     7     8 1   
    16     7    36 1   
    17     7    37 1   
    18     8     9 1   
    19     8    38 1   
    20     8    39 1   
    21     9    10 1   
    22     9    40 1   
    23     9    41 1   
    24    10    11 2   
    25    10    42 1   
    26    11    12 1   
    27    11    43 1   
    28    12    13 1   
    29    12    44 1   
    30    12    45 1   
    31    13    14 1   
    32    13    46 1   
    33    13    47 1   
    34    14    15 1   
    35    14    48 1   
    36    14    49 1   
    37    15    16 1   
    38    15    17 1   
    39    15    21 1   
    40    16    50 1   
    41    16    51 1   
    42    16    52 1   
    43    17    18 1   
    44    17    53 1   
    45    18    19 1   
    46    18    20 2   
    47    19    54 1   
    48    19    55 1   
    49    19    56 1   
    50    21    22 2   
    51    21    23 1   
    52    23    24 1   
    53    23    57 1   
    54    24    58 1   
    55    24    59 1   
    56    24    60 1   
    57    25    26 1   
    58    25    61 1   
    59    26    27 1   
    60    26    28 2   
    61    27    62 1   
    62    27    63 1   
    63    27    64 1   
@<TRIPOS>SUBSTRUCTURE
     1 MOL         1 TEMP              0 ****  ****    0 ROOT
