@<TRIPOS>MOLECULE
MOL
64 63 1 0 1
SMALL
USER_CHARGES
@<TRIPOS>ATOM
       1 C1           6.3800     1.7930    -2.4190 CT            1 MOL       -0.312697
       2 N1           5.6250     1.2640    -1.3030 N             1 MOL       -0.571981
       3 C            5.6110    -0.0670    -1.0640 C             1 MOL        0.808996
       4 O            6.0250    -0.8700    -1.8550 O             1 MOL       -0.618386
       5 CA           4.8900    -0.5260     0.2180 CX            1 MOL        0.084080
       6 C1B          5.3770    -1.9230     0.6160 CU            1 MOL       -0.039648
       7 C2B          3.3650    -0.5070    -0.0500 CU            1 MOL       -0.021151
       8 CC           2.8600    -1.4170    -1.1730 CU            1 MOL        0.037877
       9 CD           1.3480    -1.2690    -1.4120 CU            1 MOL        0.022557
      10 CE           0.5110    -1.7580    -0.2580 CM            1 MOL       -0.214008
      11 CY          -0.4110    -1.1040     0.4320 CM            1 MOL       -0.214008
      12 CG          -0.8720     0.3210     0.2430 CU            1 MOL        0.022557
      13 CH          -2.2230     0.4490    -0.4830 CU            1 MOL        0.037877
      14 CI          -3.3770    -0.2150     0.2760 CU            1 MOL       -0.021151
      15 CJ          -4.7950     0.0580    -0.2790 CT            1 MOL        0.084080
      16 C14         -4.8930    -0.3500    -1.7550 CT            1 MOL       -0.039648
      17 N2          -5.0740     1.4840    -0.1320 N             1 MOL       -0.751470
      18 C15         -6.3310     1.9810    -0.3150 C             1 MOL        0.851010
      19 C16         -6.5510     3.3790     0.2180 CT            1 MOL       -0.417370
      20 O2          -7.2030     1.3590    -0.8560 O             1 MOL       -0.609886
      21 C17         -5.7510    -0.7070     0.6680 C             1 MOL        0.808996
      22 O3          -5.9150    -0.3060     1.7900 O             1 MOL       -0.618386
      23 N3          -6.2910    -1.8620     0.2270 N             1 MOL       -0.571981
      24 C18         -7.2430    -2.5800     1.0490 CT            1 MOL       -0.312697
      25 N            5.1030     0.4310     1.3120 N             1 MOL       -0.751470
      26 C19          6.3290     0.7280     1.8290 C             1 MOL        0.851010
      27 C20          6.3080     1.4480     3.1610 CT            1 MOL       -0.417370
      28 O4           7.3510     0.4530     1.2680 O             1 MOL       -0.609886
      29 H1           6.1490     2.8460    -2.5250 H1            1 MOL        0.145923
      30 H2           7.4490     1.6770    -2.2750 H1            1 MOL        0.145923
      31 H3           6.0980     1.2790    -3.3250 H1            1 MOL        0.145923
      32 H4           5.4760     1.8620    -0.5250 H             1 MOL        0.343461
      33 HB1          6.4260    -1.8970     0.8760 HC            1 MOL        0.025456
      34 HB2          4.8090    -2.2720     1.4740 HC            1 MOL        0.025456
      35 HB3          5.2560    -2.6230    -0.1960 HC            1 MOL        0.025456
      36 HB4          2.8670    -0.7830     0.8760 HC            1 MOL        0.003044
      37 HB5          3.0750     0.5180    -0.2680 HC            1 MOL        0.003044
      38 HC1          3.0810    -2.4540    -0.9410 HC            1 MOL        0.011342
      39 HC2          3.3820    -1.1930    -2.0960 HC            1 MOL        0.011342
      40 HD1          1.0900    -1.8580    -2.2900 HC            1 MOL        0.025852
      41 HD2          1.1160    -0.2390    -1.6580 HC            1 MOL        0.025852
      42 HE           0.6990    -2.7840     0.0220 HA            1 MOL        0.123810
      43 HF          -0.9080    -1.6460     1.2210 HA            1 MOL        0.123810
      44 HG1         -0.1320     0.8890    -0.3090 HC            1 MOL        0.025852
      45 HG2         -0.9520     0.7930     1.2210 HC            1 MOL        0.025852
      46 HH1         -2.4350     1.5050    -0.6280 HC            1 MOL        0.011342
      47 HH2         -2.1250     0.0130    -1.4710 HC            1 MOL        0.011342
      48 HI1         -3.3650     0.1010     1.3150 HC            1 MOL        0.003044
      49 HI2         -3.2330    -1.2910     0.2830 HC            1 MOL        0.003044
      50 H22         -4.2810     0.3120    -2.3530 HC            1 MOL        0.025456
      51 H23         -4.5270    -1.3620    -1.9000 HC            1 MOL        0.025456
      52 H24         -5.9070    -0.2760    -2.1200 HC            1 MOL        0.025456
      53 H25         -4.5490     1.9380     0.5820 H             1 MOL        0.352163
      54 H26         -7.4020     3.8180    -0.2830 HC            1 MOL        0.112676
      55 H27         -6.7670     3.3170     1.2800 HC            1 MOL        0.112676
      56 H28         -5.6790     4.0080     0.0820 HC            1 MOL        0.112676
      57 H29         -6.3350    -2.0120    -0.7530 H             1 MOL        0.343461
      58 H30         -6.8200    -2.7540     2.0270 H1            1 MOL        0.145923
      59 H31         -7.4530    -3.5330     0.5810 H1            1 MOL        0.145923
      60 H32         -8.1690    -2.0290     1.1680 H1            1 MOL        0.145923
      61 H            4.3220     0.5770     1.9120 H             1 MOL        0.352163
      62 H34          6.2050     0.7180     3.9580 HC            1 MOL        0.112676
      63 H35          7.2450     1.9700     3.2920 HC            1 MOL        0.112676
      64 H36          5.4850     2.1500     3.2360 HC            1 MOL        0.112676
@<TRIPOS>BOND
       1        1        2 1
       2        1       29 1
       3        1       30 1
       4        1       31 1
       5        2        3 1
       6        2       32 1
       7        3        4 2
       8        3        5 1
       9        5        6 1
      10        5        7 1
      11        5       25 1
      12        6       33 1
      13        6       34 1
      14        6       35 1
      15        7        8 1
      16        7       36 1
      17        7       37 1
      18        8        9 1
      19        8       38 1
      20        8       39 1
      21        9       10 1
      22        9       40 1
      23        9       41 1
      24       10       11 2
      25       10       42 1
      26       11       12 1
      27       11       43 1
      28       12       13 1
      29       12       44 1
      30       12       45 1
      31       13       14 1
      32       13       46 1
      33       13       47 1
      34       14       15 1
      35       14       48 1
      36       14       49 1
      37       15       16 1
      38       15       17 1
      39       15       21 1
      40       16       50 1
      41       16       51 1
      42       16       52 1
      43       17       18 1
      44       17       53 1
      45       18       19 1
      46       18       20 2
      47       19       54 1
      48       19       55 1
      49       19       56 1
      50       21       22 2
      51       21       23 1
      52       23       24 1
      53       23       57 1
      54       24       58 1
      55       24       59 1
      56       24       60 1
      57       25       26 1
      58       25       61 1
      59       26       27 1
      60       26       28 2
      61       27       62 1
      62       27       63 1
      63       27       64 1
@<TRIPOS>SUBSTRUCTURE
       1 MOL             1 RESIDUE    0 **** ROOT      0
