@<TRIPOS>MOLECULE
MOL
64 63 1 0 1
SMALL
USER_CHARGES
@<TRIPOS>ATOM
       1 C1           7.2810    -2.2660    -1.9550 CT            1 MOL       -0.233077
       2 N1           6.1890    -1.8910    -1.0790 N             1 MOL       -0.593415
       3 C            5.9300    -0.5890    -0.8420 C             1 MOL        0.836429
       4 O            6.4770     0.2970    -1.4440 O             1 MOL       -0.627736
       5 CA           4.8030    -0.2410     0.1610 CX            1 MOL       -0.009662
       6 C1B          4.3860    -1.3960     1.0800 CU            1 MOL       -0.298981
       7 C2B          3.6160     0.2240    -0.7150 CU            1 MOL       -0.130507
       8 CC           2.3500     0.6500     0.0340 CU            1 MOL        0.085198
       9 CD           1.2940     1.2270    -0.9220 CU            1 MOL        0.129718
      10 CE           0.0590     1.6830    -0.1900 CM            1 MOL       -0.270520
      11 CY          -1.1880     1.2610    -0.3250 CM            1 MOL       -0.270520
      12 CG          -1.7230     0.2030    -1.2580 CU            1 MOL        0.129718
      13 CH          -2.2380    -1.0570    -0.5360 CU            1 MOL        0.085198
      14 CI          -3.4320    -0.9080     0.4220 CU            1 MOL       -0.130507
      15 CJ          -4.8280    -0.5800    -0.1710 CT            1 MOL       -0.009662
      16 C14         -5.1580    -1.5120    -1.3440 CT            1 MOL       -0.298981
      17 N2          -4.8490     0.8130    -0.6110 N             1 MOL       -0.643550
      18 C15         -6.0220     1.4260    -0.9510 C             1 MOL        0.844815
      19 C16         -5.9580     2.9350    -1.0130 CT            1 MOL       -0.371571
      20 O2          -7.0310     0.8190    -1.1810 O             1 MOL       -0.614670
      21 C17         -5.7940    -0.6970     1.0330 C             1 MOL        0.836429
      22 O3          -5.7810     0.1550     1.8830 O             1 MOL       -0.627736
      23 N3          -6.5480    -1.8100     1.1370 N             1 MOL       -0.593415
      24 C18         -7.5120    -1.9380     2.2120 CT            1 MOL       -0.233077
      25 N            5.2530     0.8990     0.9560 N             1 MOL       -0.643550
      26 C19          6.4300     0.8590     1.6440 C             1 MOL        0.844815
      27 C20          6.9420     2.2010     2.1160 CT            1 MOL       -0.371571
      28 O4           7.0210    -0.1630     1.8600 O             1 MOL       -0.614670
      29 H1           7.2410    -3.3350    -2.1180 H1            1 MOL        0.124928
      30 H2           7.1740    -1.7620    -2.9040 H1            1 MOL        0.124928
      31 H3           8.2450    -2.0040    -1.5330 H1            1 MOL        0.124928
      32 H4           5.9140    -2.5530    -0.3930 H             1 MOL        0.364958
      33 HB1          5.2340    -1.8050     1.6110 HC            1 MOL        0.095161
      34 HB2          3.8980    -2.1830     0.5140 HC            1 MOL        0.095161
      35 HB3          3.6840    -1.0330     1.8180 HC            1 MOL        0.095161
      36 HB4          3.3710    -0.5880    -1.3950 HC            1 MOL        0.047052
      37 HB5          3.9670     1.0420    -1.3370 HC            1 MOL        0.047052
      38 HC1          1.9170    -0.1950     0.5590 HC            1 MOL       -0.000247
      39 HC2          2.5910     1.3910     0.7920 HC            1 MOL       -0.000247
      40 HD1          1.7230     2.0790    -1.4480 HC            1 MOL        0.001363
      41 HD2          1.0530     0.4900    -1.6790 HC            1 MOL        0.001363
      42 HE           0.2390     2.4550     0.5420 HA            1 MOL        0.136964
      43 HF          -1.9200     1.7290     0.3150 HA            1 MOL        0.136964
      44 HG1         -2.5160     0.6300    -1.8620 HC            1 MOL        0.001363
      45 HG2         -0.9500    -0.1090    -1.9490 HC            1 MOL        0.001363
      46 HH1         -2.4660    -1.8100    -1.2830 HC            1 MOL       -0.000247
      47 HH2         -1.4190    -1.4600     0.0530 HC            1 MOL       -0.000247
      48 HI1         -3.5370    -1.8550     0.9430 HC            1 MOL        0.047052
      49 HI2         -3.2130    -0.1750     1.1910 HC            1 MOL        0.047052
      50 H22         -6.1830    -1.3950    -1.6650 HC            1 MOL        0.095161
      51 H23         -4.9770    -2.5490    -1.0760 HC            1 MOL        0.095161
      52 H24         -4.5230    -1.2720    -2.1860 HC            1 MOL        0.095161
      53 H25         -4.2060     1.4040    -0.1340 H             1 MOL        0.342417
      54 H26         -5.0120     3.2860    -1.4100 HC            1 MOL        0.098862
      55 H27         -6.0760     3.3300    -0.0090 HC            1 MOL        0.098862
      56 H28         -6.7700     3.2980    -1.6260 HC            1 MOL        0.098862
      57 H29         -6.7140    -2.3410     0.3160 H             1 MOL        0.364958
      58 H30         -8.3250    -1.2280     2.1120 H1            1 MOL        0.124928
      59 H31         -7.9130    -2.9430     2.1980 H1            1 MOL        0.124928
      60 H32         -7.0240    -1.7680     3.1600 H1            1 MOL        0.124928
      61 H            5.0250     1.7890     0.5740 H             1 MOL        0.342417
      62 H34          7.4740     2.6770     1.2980 HC            1 MOL        0.098862
      63 H35          7.6310     2.0480     2.9330 HC            1 MOL        0.098862
      64 H36          6.1370     2.8560     2.4290 HC            1 MOL        0.098862
@<TRIPOS>BOND
       1        1        2 1
       2        1       29 1
       3        1       30 1
       4        1       31 1
       5        2        3 1
       6        2       32 1
       7        3        4 2
       8        3        5 1
       9        5        6 1
      10        5        7 1
      11        5       25 1
      12        6       33 1
      13        6       34 1
      14        6       35 1
      15        7        8 1
      16        7       36 1
      17        7       37 1
      18        8        9 1
      19        8       38 1
      20        8       39 1
      21        9       10 1
      22        9       40 1
      23        9       41 1
      24       10       11 2
      25       10       42 1
      26       11       12 1
      27       11       43 1
      28       12       13 1
      29       12       44 1
      30       12       45 1
      31       13       14 1
      32       13       46 1
      33       13       47 1
      34       14       15 1
      35       14       48 1
      36       14       49 1
      37       15       16 1
      38       15       17 1
      39       15       21 1
      40       16       50 1
      41       16       51 1
      42       16       52 1
      43       17       18 1
      44       17       53 1
      45       18       19 1
      46       18       20 2
      47       19       54 1
      48       19       55 1
      49       19       56 1
      50       21       22 2
      51       21       23 1
      52       23       24 1
      53       23       57 1
      54       24       58 1
      55       24       59 1
      56       24       60 1
      57       25       26 1
      58       25       61 1
      59       26       27 1
      60       26       28 2
      61       27       62 1
      62       27       63 1
      63       27       64 1
@<TRIPOS>SUBSTRUCTURE
       1 MOL             1 RESIDUE    0 **** ROOT      0
