@<TRIPOS>MOLECULE
MOL
   64    63     1     0     0
SMALL
resp


@<TRIPOS>ATOM
      1 C1           6.2850     3.0720     1.5790 CT         1 MOL      -0.364875
      2 N1           5.8500     2.2780     0.4480 N          1 MOL      -0.583447
      3 C2           5.2840     1.0680     0.6490 C          1 MOL       0.872185
      4 O1           4.9910     0.6770     1.7480 O          1 MOL      -0.621019
      5 C3           4.9100     0.2380    -0.6010 CT         1 MOL       0.033037
      6 C4           5.7560     0.5620    -1.8440 CT         1 MOL      -0.109039
      7 C5           3.4300     0.5280    -0.9590 CT         1 MOL      -0.075874
      8 C6           2.3560     0.2050     0.0880 CT         1 MOL      -0.033448
      9 C7           0.9530     0.6800    -0.3320 CT         1 MOL       0.154648
     10 C8           0.4280     0.0340    -1.5920 CM         1 MOL      -0.231108
     11 C9          -0.4410    -0.9590    -1.6930 CM         1 MOL      -0.231108
     12 C10         -1.1380    -1.7160    -0.5920 CT         1 MOL       0.154648
     13 C11         -2.6720    -1.6770    -0.7010 CT         1 MOL      -0.033448
     14 C12         -3.2370    -0.2750    -0.4620 CT         1 MOL      -0.075874
     15 C13         -4.7800    -0.1390    -0.4980 CT         1 MOL       0.033037
     16 C14         -5.3510    -0.5320    -1.8640 CT         1 MOL      -0.109039
     17 N2          -5.0510     1.2750    -0.2080 N          1 MOL      -0.724130
     18 C15         -6.3040     1.8040    -0.1190 C          1 MOL       0.850971
     19 C16         -6.3690     3.3160    -0.1650 CT         1 MOL      -0.387729
     20 O2          -7.2850     1.1250     0.0000 O          1 MOL      -0.615513
     21 C17         -5.3700    -1.0490     0.5970 C          1 MOL       0.872185
     22 O3          -5.7460    -2.1580     0.3330 O          1 MOL      -0.621019
     23 N3          -5.3130    -0.5810     1.8630 N          1 MOL      -0.583447
     24 C18         -5.9460    -1.3150     2.9390 CT         1 MOL      -0.364875
     25 N4           5.0500    -1.1740    -0.2730 N          1 MOL      -0.724130
     26 C19          6.2170    -1.6750     0.2210 C          1 MOL       0.850971
     27 C20          6.1100    -3.0490     0.8430 CT         1 MOL      -0.387729
     28 O4           7.2560    -1.0760     0.1710 O          1 MOL      -0.615513
     29 H1           5.4630     3.2090     2.2660 H1         1 MOL       0.158173
     30 H2           7.1020     2.6010     2.1130 H1         1 MOL       0.158173
     31 H3           6.6060     4.0410     1.2180 H1         1 MOL       0.158173
     32 H4           6.3000     2.4460    -0.4200 H          1 MOL       0.347282
     33 H5           6.8130     0.4710    -1.6440 HC         1 MOL       0.049249
     34 H6           5.5000    -0.1390    -2.6290 HC         1 MOL       0.049249
     35 H7           5.5410     1.5600    -2.2150 HC         1 MOL       0.049249
     36 H8           3.3660     1.5850    -1.2050 HC         1 MOL       0.021020
     37 H9           3.2180    -0.0170    -1.8740 HC         1 MOL       0.021020
     38 H10          2.6110     0.6640     1.0340 HC         1 MOL       0.029328
     39 H11          2.3040    -0.8670     0.2660 HC         1 MOL       0.029328
     40 H12          0.2750     0.5030     0.4940 HC         1 MOL      -0.009208
     41 H13          0.9790     1.7580    -0.4780 HC         1 MOL      -0.009208
     42 H14          0.8240     0.4330    -2.5130 HA         1 MOL       0.124774
     43 H15         -0.6930    -1.2940    -2.6880 HA         1 MOL       0.124774
     44 H16         -0.8260    -2.7570    -0.6470 HC         1 MOL      -0.009208
     45 H17         -0.8320    -1.3590     0.3860 HC         1 MOL      -0.009208
     46 H18         -2.9650    -2.0360    -1.6820 HC         1 MOL       0.029328
     47 H19         -3.0900    -2.3730     0.0160 HC         1 MOL       0.029328
     48 H20         -2.8910     0.0850     0.5030 HC         1 MOL       0.021020
     49 H21         -2.8330     0.4000    -1.2120 HC         1 MOL       0.021020
     50 H22         -6.4170    -0.3550    -1.8920 HC         1 MOL       0.049249
     51 H23         -4.8730     0.0620    -2.6390 HC         1 MOL       0.049249
     52 H24         -5.1850    -1.5780    -2.0680 HC         1 MOL       0.049249
     53 H25         -4.3170     1.9080    -0.4370 H          1 MOL       0.346571
     54 H26         -7.2940     3.6410     0.2880 HC         1 MOL       0.104056
     55 H27         -6.3600     3.6410    -1.2010 HC         1 MOL       0.104056
     56 H28         -5.5300     3.7790     0.3420 HC         1 MOL       0.104056
     57 H29         -5.2050     0.3990     1.9780 H          1 MOL       0.347282
     58 H30         -5.6640    -0.8620     3.8810 H1         1 MOL       0.158173
     59 H31         -5.6070    -2.3400     2.9290 H1         1 MOL       0.158173
     60 H32         -7.0270    -1.3090     2.8510 H1         1 MOL       0.158173
     61 H33          4.2260    -1.6200     0.0600 H          1 MOL       0.346571
     62 H34          7.0870    -3.5090     0.8550 HC         1 MOL       0.104056
     63 H35          5.7650    -2.9400     1.8670 HC         1 MOL       0.104056
     64 H36          5.4110    -3.6840     0.3110 HC         1 MOL       0.104056
@<TRIPOS>BOND
     1     1     2 1   
     2     1    29 1   
     3     1    30 1   
     4     1    31 1   
     5     2     3 1   
     6     2    32 1   
     7     3     4 2   
     8     3     5 1   
     9     5     6 1   
    10     5     7 1   
    11     5    25 1   
    12     6    33 1   
    13     6    34 1   
    14     6    35 1   
    15     7     8 1   
    16     7    36 1   
    17     7    37 1   
    18     8     9 1   
    19     8    38 1   
    20     8    39 1   
    21     9    10 1   
    22     9    40 1   
    23     9    41 1   
    24    10    11 2   
    25    10    42 1   
    26    11    12 1   
    27    11    43 1   
    28    12    13 1   
    29    12    44 1   
    30    12    45 1   
    31    13    14 1   
    32    13    46 1   
    33    13    47 1   
    34    14    15 1   
    35    14    48 1   
    36    14    49 1   
    37    15    16 1   
    38    15    17 1   
    39    15    21 1   
    40    16    50 1   
    41    16    51 1   
    42    16    52 1   
    43    17    18 1   
    44    17    53 1   
    45    18    19 1   
    46    18    20 2   
    47    19    54 1   
    48    19    55 1   
    49    19    56 1   
    50    21    22 2   
    51    21    23 1   
    52    23    24 1   
    53    23    57 1   
    54    24    58 1   
    55    24    59 1   
    56    24    60 1   
    57    25    26 1   
    58    25    61 1   
    59    26    27 1   
    60    26    28 2   
    61    27    62 1   
    62    27    63 1   
    63    27    64 1   
@<TRIPOS>SUBSTRUCTURE
     1 MOL         1 TEMP              0 ****  ****    0 ROOT
