@<TRIPOS>MOLECULE
MOL
   64    63     1     0     0
SMALL
resp


@<TRIPOS>ATOM
      1 C1          -6.2730     2.6960     1.1330 CT         1 MOL      -0.471246
      2 N1          -5.4590     1.4980     1.1880 N          1 MOL      -0.622095
      3 C2          -5.3580     0.6790     0.1220 C          1 MOL       0.828601
      4 O1          -5.9590     0.8900    -0.8960 O          1 MOL      -0.589780
      5 C3          -4.4070    -0.5380     0.2230 CT         1 MOL       0.130420
      6 C4          -3.9270    -0.8720     1.6440 CT         1 MOL      -0.182436
      7 C5          -3.1980    -0.2300    -0.6960 CT         1 MOL      -0.062864
      8 C6          -2.3510     0.9950    -0.3420 CT         1 MOL       0.039647
      9 C7          -1.2180     1.2080    -1.3560 CT         1 MOL       0.215174
     10 C8          -0.4160     2.4480    -1.0560 CM         1 MOL      -0.314217
     11 C9           0.8750     2.5530    -0.7890 CM         1 MOL      -0.314217
     12 C10          1.9160     1.4660    -0.7100 CT         1 MOL       0.215174
     13 C11          2.5640     1.4190     0.6820 CT         1 MOL       0.039647
     14 C12          3.5860     0.2980     0.9390 CT         1 MOL      -0.062864
     15 C13          4.9650     0.3860     0.2340 CT         1 MOL       0.130420
     16 C14          5.6080     1.7690     0.4640 CT         1 MOL      -0.182436
     17 N2           4.8760     0.2340    -1.2090 N          1 MOL      -0.744840
     18 C15          4.6310    -0.8760    -1.9870 C          1 MOL       0.808586
     19 C16          3.8430    -2.0420    -1.4370 CT         1 MOL      -0.391029
     20 O2           4.9640    -0.8550    -3.1380 O          1 MOL      -0.625544
     21 C17          5.9410    -0.6740     0.8160 C          1 MOL       0.828601
     22 O3           6.4800    -1.4850     0.1160 O          1 MOL      -0.589780
     23 N3           6.1690    -0.6320     2.1480 N          1 MOL      -0.622095
     24 C18          7.1420    -1.5120     2.7640 CT         1 MOL      -0.471246
     25 N4          -5.0410    -1.7090    -0.3720 N          1 MOL      -0.744840
     26 C19         -6.2710    -2.2660    -0.1520 C          1 MOL       0.808586
     27 C20         -7.0440    -1.9120     1.1010 CT         1 MOL      -0.391029
     28 O4          -6.7000    -3.0820    -0.9180 O          1 MOL      -0.625544
     29 H1          -7.2940     2.4500     0.8730 H1         1 MOL       0.191123
     30 H2          -6.2590     3.1660     2.1070 H1         1 MOL       0.191123
     31 H3          -5.8930     3.3930     0.3970 H1         1 MOL       0.191123
     32 H4          -4.9380     1.3150     2.0110 H          1 MOL       0.378000
     33 H5          -3.2990    -1.7530     1.5980 HC         1 MOL       0.057468
     34 H6          -4.7480    -1.0860     2.3160 HC         1 MOL       0.057468
     35 H7          -3.3380    -0.0720     2.0790 HC         1 MOL       0.057468
     36 H8          -3.5870    -0.1020    -1.7010 HC         1 MOL       0.018487
     37 H9          -2.5670    -1.1150    -0.7030 HC         1 MOL       0.018487
     38 H10         -1.9140     0.8920     0.6470 HC         1 MOL      -0.016015
     39 H11         -2.9730     1.8850    -0.3170 HC         1 MOL      -0.016015
     40 H12         -1.6510     1.3060    -2.3500 HC         1 MOL      -0.003645
     41 H13         -0.5860     0.3280    -1.3820 HC         1 MOL      -0.003645
     42 H14         -0.9920     3.3610    -1.0680 HA         1 MOL       0.151307
     43 H15          1.2560     3.5460    -0.6030 HA         1 MOL       0.151307
     44 H16          2.6720     1.6500    -1.4640 HC         1 MOL      -0.003645
     45 H17          1.4860     0.4980    -0.9390 HC         1 MOL      -0.003645
     46 H18          1.7700     1.2840     1.4130 HC         1 MOL      -0.016015
     47 H19          3.0040     2.3860     0.9090 HC         1 MOL      -0.016015
     48 H20          3.1280    -0.6560     0.7090 HC         1 MOL       0.018487
     49 H21          3.7640     0.2790     2.0090 HC         1 MOL       0.018487
     50 H22          5.5960     2.0510     1.5100 HC         1 MOL       0.057468
     51 H23          5.0720     2.5280    -0.0900 HC         1 MOL       0.057468
     52 H24          6.6390     1.7690     0.1270 HC         1 MOL       0.057468
     53 H25          5.4700     0.8510    -1.7210 H          1 MOL       0.370958
     54 H26          3.9680    -2.8650    -2.1250 HC         1 MOL       0.112643
     55 H27          2.7900    -1.7800    -1.4030 HC         1 MOL       0.112643
     56 H28          4.1620    -2.3490    -0.4540 HC         1 MOL       0.112643
     57 H29          5.8070     0.1150     2.6890 H          1 MOL       0.378000
     58 H30          7.0820    -1.3930     3.8370 H1         1 MOL       0.191123
     59 H31          6.9260    -2.5400     2.5110 H1         1 MOL       0.191123
     60 H32          8.1500    -1.2850     2.4370 H1         1 MOL       0.191123
     61 H33         -4.7150    -1.9540    -1.2820 H          1 MOL       0.370958
     62 H34         -8.0780    -2.1710     0.9280 HC         1 MOL       0.112643
     63 H35         -6.6740    -2.5130     1.9250 HC         1 MOL       0.112643
     64 H36         -6.9770    -0.8700     1.3810 HC         1 MOL       0.112643
@<TRIPOS>BOND
     1     1     2 1   
     2     1    29 1   
     3     1    30 1   
     4     1    31 1   
     5     2     3 1   
     6     2    32 1   
     7     3     4 2   
     8     3     5 1   
     9     5     6 1   
    10     5     7 1   
    11     5    25 1   
    12     6    33 1   
    13     6    34 1   
    14     6    35 1   
    15     7     8 1   
    16     7    36 1   
    17     7    37 1   
    18     8     9 1   
    19     8    38 1   
    20     8    39 1   
    21     9    10 1   
    22     9    40 1   
    23     9    41 1   
    24    10    11 2   
    25    10    42 1   
    26    11    12 1   
    27    11    43 1   
    28    12    13 1   
    29    12    44 1   
    30    12    45 1   
    31    13    14 1   
    32    13    46 1   
    33    13    47 1   
    34    14    15 1   
    35    14    48 1   
    36    14    49 1   
    37    15    16 1   
    38    15    17 1   
    39    15    21 1   
    40    16    50 1   
    41    16    51 1   
    42    16    52 1   
    43    17    18 1   
    44    17    53 1   
    45    18    19 1   
    46    18    20 2   
    47    19    54 1   
    48    19    55 1   
    49    19    56 1   
    50    21    22 2   
    51    21    23 1   
    52    23    24 1   
    53    23    57 1   
    54    24    58 1   
    55    24    59 1   
    56    24    60 1   
    57    25    26 1   
    58    25    61 1   
    59    26    27 1   
    60    26    28 2   
    61    27    62 1   
    62    27    63 1   
    63    27    64 1   
@<TRIPOS>SUBSTRUCTURE
     1 MOL         1 TEMP              0 ****  ****    0 ROOT
