@<TRIPOS>MOLECULE
MOL
64 63 1 0 1
SMALL
USER_CHARGES
@<TRIPOS>ATOM
       1 C1           5.2320     3.5930    -0.3220 CT            1 MOL       -0.354856
       2 N1           5.0700     2.2230    -0.7650 N             1 MOL       -0.611701
       3 C            4.7270     1.2620     0.1170 C             1 MOL        0.874459
       4 O            4.4060     1.5110     1.2490 O             1 MOL       -0.633312
       5 CA           4.6380    -0.1970    -0.3940 CX            1 MOL        0.015935
       6 C1B          5.3620    -0.4530    -1.7230 CU            1 MOL       -0.238256
       7 C2B          3.1240    -0.4830    -0.5250 CU            1 MOL       -0.026773
       8 CC           2.7430    -1.8910    -0.9950 CU            1 MOL       -0.007069
       9 CD           1.2240    -2.1310    -0.9620 CU            1 MOL        0.056223
      10 CE           0.4710    -1.3050    -1.9730 CM            1 MOL       -0.226073
      11 CY          -0.4710    -0.3980    -1.7690 CM            1 MOL       -0.226073
      12 CG          -1.0620     0.0670    -0.4640 CU            1 MOL        0.056223
      13 CH          -2.5760    -0.1840    -0.3950 CU            1 MOL       -0.007069
      14 CI          -3.1550     0.3060     0.9380 CU            1 MOL       -0.026773
      15 CJ          -4.6750     0.1950     1.1960 CT            1 MOL        0.015935
      16 C14         -4.9170     0.5440     2.6760 CT            1 MOL       -0.238256
      17 N2          -5.1570    -1.1700     1.0020 N             1 MOL       -0.689299
      18 C15         -5.5830    -1.6400    -0.2030 C             1 MOL        0.846075
      19 C16         -6.3860    -2.9200    -0.1450 CT            1 MOL       -0.373424
      20 O2          -5.3450    -1.0810    -1.2380 O             1 MOL       -0.624159
      21 C17         -5.5960     1.1600     0.4090 C             1 MOL        0.874459
      22 O3          -6.7880     1.0490     0.5160 O             1 MOL       -0.633312
      23 N3          -5.0260     2.1780    -0.2670 N             1 MOL       -0.611701
      24 C18         -5.8490     3.0660    -1.0640 CT            1 MOL       -0.354856
      25 N            5.1780    -1.0650     0.6480 N             1 MOL       -0.689299
      26 C19          6.4320    -0.8740     1.1500 C             1 MOL        0.846075
      27 C20          6.7170    -1.5910     2.4500 CT            1 MOL       -0.373424
      28 O4           7.2510    -0.1870     0.6050 O             1 MOL       -0.624159
      29 H1           4.3430     3.9130     0.2010 H1            1 MOL        0.158010
      30 H2           6.0810     3.7040     0.3430 H1            1 MOL        0.158010
      31 H3           5.3760     4.2220    -1.1910 H1            1 MOL        0.158010
      32 H4           5.5570     1.9520    -1.5860 H             1 MOL        0.379996
      33 HB1          5.3550    -1.5120    -1.9390 HC            1 MOL        0.079218
      34 HB2          6.3940    -0.1360    -1.6790 HC            1 MOL        0.079218
      35 HB3          4.8600     0.0560    -2.5410 HC            1 MOL        0.079218
      36 HB4          2.6690    -0.2880     0.4410 HC            1 MOL        0.012899
      37 HB5          2.7060     0.2480    -1.2090 HC            1 MOL        0.012899
      38 HC1          3.1020    -2.0610    -2.0050 HC            1 MOL        0.019297
      39 HC2          3.2250    -2.6370    -0.3700 HC            1 MOL        0.019297
      40 HD1          1.0440    -3.1820    -1.1810 HC            1 MOL        0.026444
      41 HD2          0.8520    -1.9600     0.0420 HC            1 MOL        0.026444
      42 HE           0.7530    -1.4980    -2.9980 HA            1 MOL        0.123005
      43 HF          -0.8930     0.0770    -2.6420 HA            1 MOL        0.123005
      44 HG1         -0.5750    -0.4110     0.3780 HC            1 MOL        0.026444
      45 HG2         -0.8710     1.1350    -0.3590 HC            1 MOL        0.026444
      46 HH1         -3.0630     0.2890    -1.2400 HC            1 MOL        0.019297
      47 HH2         -2.7660    -1.2440    -0.5070 HC            1 MOL        0.019297
      48 HI1         -2.6760    -0.2640     1.7290 HC            1 MOL        0.012899
      49 HI2         -2.8600     1.3400     1.1080 HC            1 MOL        0.012899
      50 H22         -4.5670     1.5470     2.8920 HC            1 MOL        0.079218
      51 H23         -4.3780    -0.1450     3.3180 HC            1 MOL        0.079218
      52 H24         -5.9740     0.4970     2.9060 HC            1 MOL        0.079218
      53 H25         -5.5850    -1.5860     1.7990 H             1 MOL        0.360576
      54 H26         -7.4220    -2.6700     0.0600 HC            1 MOL        0.099896
      55 H27         -6.0340    -3.5910     0.6300 HC            1 MOL        0.099896
      56 H28         -6.3340    -3.4120    -1.1060 HC            1 MOL        0.099896
      57 H29         -4.0740     2.0910    -0.5300 H             1 MOL        0.379996
      58 H30         -6.3000     2.5500    -1.9040 H1            1 MOL        0.158010
      59 H31         -5.2290     3.8740    -1.4310 H1            1 MOL        0.158010
      60 H32         -6.6370     3.4780    -0.4510 H1            1 MOL        0.158010
      61 H            4.5080    -1.3810     1.3140 H             1 MOL        0.360576
      62 H34          7.7860    -1.6970     2.5670 HC            1 MOL        0.099896
      63 H35          6.2440    -2.5660     2.4900 HC            1 MOL        0.099896
      64 H36          6.3360    -0.9900     3.2700 HC            1 MOL        0.099896
@<TRIPOS>BOND
       1        1        2 1
       2        1       29 1
       3        1       30 1
       4        1       31 1
       5        2        3 1
       6        2       32 1
       7        3        4 2
       8        3        5 1
       9        5        6 1
      10        5        7 1
      11        5       25 1
      12        6       33 1
      13        6       34 1
      14        6       35 1
      15        7        8 1
      16        7       36 1
      17        7       37 1
      18        8        9 1
      19        8       38 1
      20        8       39 1
      21        9       10 1
      22        9       40 1
      23        9       41 1
      24       10       11 2
      25       10       42 1
      26       11       12 1
      27       11       43 1
      28       12       13 1
      29       12       44 1
      30       12       45 1
      31       13       14 1
      32       13       46 1
      33       13       47 1
      34       14       15 1
      35       14       48 1
      36       14       49 1
      37       15       16 1
      38       15       17 1
      39       15       21 1
      40       16       50 1
      41       16       51 1
      42       16       52 1
      43       17       18 1
      44       17       53 1
      45       18       19 1
      46       18       20 2
      47       19       54 1
      48       19       55 1
      49       19       56 1
      50       21       22 2
      51       21       23 1
      52       23       24 1
      53       23       57 1
      54       24       58 1
      55       24       59 1
      56       24       60 1
      57       25       26 1
      58       25       61 1
      59       26       27 1
      60       26       28 2
      61       27       62 1
      62       27       63 1
      63       27       64 1
@<TRIPOS>SUBSTRUCTURE
       1 MOL             1 RESIDUE    0 **** ROOT      0
