@<TRIPOS>MOLECULE
MOL
   64    63     1     0     0
SMALL
resp


@<TRIPOS>ATOM
      1 C1           7.0400     0.2920     1.4320 CT         1 MOL      -0.246488
      2 N1           5.9390     0.2000     0.4960 N          1 MOL      -0.564542
      3 C2           4.7800    -0.3880     0.8410 C          1 MOL       0.781356
      4 O1           4.6100    -0.8380     1.9460 O          1 MOL      -0.607660
      5 C3           3.6480    -0.4040    -0.2160 CT         1 MOL       0.060287
      6 C4           4.2000    -0.7610    -1.6060 CT         1 MOL      -0.348324
      7 C5           3.0230     1.0160    -0.1630 CT         1 MOL      -0.014589
      8 C6           1.8640     1.2960    -1.1240 CT         1 MOL       0.002560
      9 C7           1.3930     2.7630    -1.0820 CT         1 MOL       0.026169
     10 C8           0.7540     3.1750     0.2210 CM         1 MOL      -0.222417
     11 C9          -0.4920     3.5670     0.4340 CM         1 MOL      -0.222417
     12 C10         -1.6190     3.7190    -0.5560 CT         1 MOL       0.026169
     13 C11         -2.8010     2.7690    -0.2900 CT         1 MOL       0.002560
     14 C12         -2.4210     1.3030    -0.5130 CT         1 MOL      -0.014589
     15 C13         -3.5330     0.2560    -0.2660 CT         1 MOL       0.060287
     16 C14         -4.7500     0.5200    -1.1640 CT         1 MOL      -0.348324
     17 N2          -3.9120     0.3230     1.1400 N          1 MOL      -0.690835
     18 C15         -4.7300    -0.6180     1.7000 C          1 MOL       0.855631
     19 C16         -4.7070    -0.6600     3.2120 CT         1 MOL      -0.276238
     20 O2          -5.4180    -1.3550     1.0510 O          1 MOL      -0.621150
     21 C17         -2.8410    -1.1050    -0.5140 C          1 MOL       0.781356
     22 O3          -2.1400    -1.5790     0.3460 O          1 MOL      -0.607660
     23 N3          -2.9620    -1.6570    -1.7300 N          1 MOL      -0.564542
     24 C18         -2.2680    -2.8830    -2.0740 CT         1 MOL      -0.246488
     25 N4           2.7310    -1.4260     0.2720 N          1 MOL      -0.690835
     26 C19          1.7470    -2.0760    -0.3860 C          1 MOL       0.855631
     27 C20          1.0130    -3.1140     0.4360 CT         1 MOL      -0.276238
     28 O4           1.4410    -1.8730    -1.5350 O          1 MOL      -0.621150
     29 H1           7.8400     0.8520     0.9660 H1         1 MOL       0.126843
     30 H2           7.4070    -0.6890     1.7050 H1         1 MOL       0.126843
     31 H3           6.7300     0.8030     2.3330 H1         1 MOL       0.126843
     32 H4           6.0820     0.5000    -0.4380 H          1 MOL       0.355604
     33 H5           4.8000     0.0490    -2.0100 HC         1 MOL       0.100788
     34 H6           4.8160    -1.6530    -1.5520 HC         1 MOL       0.100788
     35 H7           3.3930    -0.9520    -2.2920 HC         1 MOL       0.100788
     36 H8           2.7010     1.1790     0.8600 HC         1 MOL       0.024071
     37 H9           3.8150     1.7370    -0.3570 HC         1 MOL       0.024071
     38 H10          1.0310     0.6400    -0.9100 HC         1 MOL       0.030469
     39 H11          2.1720     1.0750    -2.1400 HC         1 MOL       0.030469
     40 H12          2.2460     3.4130    -1.2710 HC         1 MOL       0.022827
     41 H13          0.7060     2.9210    -1.9050 HC         1 MOL       0.022827
     42 H14          1.4070     3.1490     1.0790 HA         1 MOL       0.124042
     43 H15         -0.7600     3.8210     1.4500 HA         1 MOL       0.124042
     44 H16         -1.2710     3.5780    -1.5720 HC         1 MOL       0.022827
     45 H17         -1.9880     4.7420    -0.4980 HC         1 MOL       0.022827
     46 H18         -3.1630     2.9170     0.7230 HC         1 MOL       0.030469
     47 H19         -3.6150     3.0490    -0.9500 HC         1 MOL       0.030469
     48 H20         -2.0770     1.1800    -1.5360 HC         1 MOL       0.024071
     49 H21         -1.5790     1.0470     0.1200 HC         1 MOL       0.024071
     50 H22         -5.4430    -0.3070    -1.1450 HC         1 MOL       0.100788
     51 H23         -4.4410     0.7130    -2.1870 HC         1 MOL       0.100788
     52 H24         -5.2750     1.3980    -0.8100 HC         1 MOL       0.100788
     53 H25         -3.1820     0.6370     1.7420 H          1 MOL       0.335335
     54 H26         -4.6340     0.3310     3.6440 HC         1 MOL       0.071211
     55 H27         -5.6020    -1.1500     3.5650 HC         1 MOL       0.071211
     56 H28         -3.8440    -1.2380     3.5300 HC         1 MOL       0.071211
     57 H29         -3.6570    -1.3180    -2.3500 H          1 MOL       0.355604
     58 H30         -2.5720    -3.6980    -1.4280 H1         1 MOL       0.126843
     59 H31         -1.1990    -2.7450    -1.9910 H1         1 MOL       0.126843
     60 H32         -2.5110    -3.1350    -3.0980 H1         1 MOL       0.126843
     61 H33          2.8840    -1.6640     1.2270 H          1 MOL       0.335335
     62 H34          1.4640    -3.2960     1.4040 HC         1 MOL       0.071211
     63 H35         -0.0090    -2.7840     0.5700 HC         1 MOL       0.071211
     64 H36          0.9950    -4.0400    -0.1260 HC         1 MOL       0.071211
@<TRIPOS>BOND
     1     1     2 1   
     2     1    29 1   
     3     1    30 1   
     4     1    31 1   
     5     2     3 1   
     6     2    32 1   
     7     3     4 2   
     8     3     5 1   
     9     5     6 1   
    10     5     7 1   
    11     5    25 1   
    12     6    33 1   
    13     6    34 1   
    14     6    35 1   
    15     7     8 1   
    16     7    36 1   
    17     7    37 1   
    18     8     9 1   
    19     8    38 1   
    20     8    39 1   
    21     9    10 1   
    22     9    40 1   
    23     9    41 1   
    24    10    11 2   
    25    10    42 1   
    26    11    12 1   
    27    11    43 1   
    28    12    13 1   
    29    12    44 1   
    30    12    45 1   
    31    13    14 1   
    32    13    46 1   
    33    13    47 1   
    34    14    15 1   
    35    14    48 1   
    36    14    49 1   
    37    15    16 1   
    38    15    17 1   
    39    15    21 1   
    40    16    50 1   
    41    16    51 1   
    42    16    52 1   
    43    17    18 1   
    44    17    53 1   
    45    18    19 1   
    46    18    20 2   
    47    19    54 1   
    48    19    55 1   
    49    19    56 1   
    50    21    22 2   
    51    21    23 1   
    52    23    24 1   
    53    23    57 1   
    54    24    58 1   
    55    24    59 1   
    56    24    60 1   
    57    25    26 1   
    58    25    61 1   
    59    26    27 1   
    60    26    28 2   
    61    27    62 1   
    62    27    63 1   
    63    27    64 1   
@<TRIPOS>SUBSTRUCTURE
     1 MOL         1 TEMP              0 ****  ****    0 ROOT
