@<TRIPOS>MOLECULE
MOL
   64    63     1     0     0
SMALL
resp


@<TRIPOS>ATOM
      1 C1           6.4200    -2.7630     1.9150 CT         1 MOL      -0.323534
      2 N1           5.4500    -1.7290     1.6130 N          1 MOL      -0.584059
      3 C2           5.4640    -1.1250     0.4070 C          1 MOL       0.764433
      4 O1           6.1580    -1.5070    -0.4970 O          1 MOL      -0.610311
      5 C3           4.4630     0.0300     0.1580 CT         1 MOL       0.216043
      6 C4           3.8420     0.6200     1.4310 CT         1 MOL      -0.361454
      7 C5           3.3790    -0.5670    -0.7710 CT         1 MOL      -0.000119
      8 C6           2.2720     0.4040    -1.2400 CT         1 MOL      -0.006738
      9 C7           0.9190     0.2780    -0.5130 CT         1 MOL       0.006416
     10 C8           0.2130    -1.0300    -0.7720 CM         1 MOL      -0.249658
     11 C9          -0.8460    -1.2460    -1.5370 CM         1 MOL      -0.249658
     12 C10         -1.6330    -0.2590    -2.3610 CT         1 MOL       0.006416
     13 C11         -3.1420    -0.2950    -2.0700 CT         1 MOL      -0.006738
     14 C12         -3.4720     0.2130    -0.6620 CT         1 MOL      -0.000119
     15 C13         -4.9530     0.1800    -0.2220 CT         1 MOL       0.216043
     16 C14         -5.9050     0.7190    -1.3070 CT         1 MOL      -0.361454
     17 N2          -5.1090     0.9410     1.0300 N          1 MOL      -0.759711
     18 C15         -4.9560     2.2910     1.1540 C          1 MOL       0.845068
     19 C16         -4.8730     2.7820     2.5850 CT         1 MOL      -0.276799
     20 O2          -4.8890     3.0460     0.2250 O          1 MOL      -0.620212
     21 C17         -5.4030    -1.2630     0.0870 C          1 MOL       0.764433
     22 O3          -4.8420    -2.2210    -0.3720 O          1 MOL      -0.610311
     23 N3          -6.4830    -1.3870     0.8920 N          1 MOL      -0.584059
     24 C18         -7.1070    -2.6760     1.1090 CT         1 MOL      -0.323534
     25 N4           5.1660     1.0730    -0.5840 N          1 MOL      -0.759711
     26 C19          6.3320     1.6090    -0.1260 C          1 MOL       0.845068
     27 C20          7.1190     2.4000    -1.1470 CT         1 MOL      -0.276799
     28 O4           6.7140     1.4640     1.0030 O          1 MOL      -0.620212
     29 H1           6.1680    -3.2050     2.8700 H1         1 MOL       0.150970
     30 H2           6.3860    -3.5270     1.1530 H1         1 MOL       0.150970
     31 H3           7.4290    -2.3680     1.9600 H1         1 MOL       0.150970
     32 H4           5.0790    -1.2230     2.3810 H          1 MOL       0.350839
     33 H5           4.6030     0.9780     2.1100 HC         1 MOL       0.101418
     34 H6           3.2220    -0.1130     1.9360 HC         1 MOL       0.101418
     35 H7           3.2140     1.4620     1.1690 HC         1 MOL       0.101418
     36 H8           3.8950    -0.9790    -1.6310 HC         1 MOL       0.012956
     37 H9           2.9410    -1.4170    -0.2580 HC         1 MOL       0.012956
     38 H10          2.6210     1.4280    -1.1510 HC         1 MOL       0.032244
     39 H11          2.0920     0.2390    -2.2980 HC         1 MOL       0.032244
     40 H12          1.0690     0.3880     0.5580 HC         1 MOL       0.036778
     41 H13          0.2940     1.1090    -0.8180 HC         1 MOL       0.036778
     42 H14          0.6350    -1.8890    -0.2730 HA         1 MOL       0.141406
     43 H15         -1.2100    -2.2610    -1.5990 HA         1 MOL       0.141406
     44 H16         -1.2580     0.7500    -2.2330 HC         1 MOL       0.036778
     45 H17         -1.4880    -0.5070    -3.4110 HC         1 MOL       0.036778
     46 H18         -3.6380     0.3280    -2.8080 HC         1 MOL       0.032244
     47 H19         -3.5110    -1.3040    -2.2000 HC         1 MOL       0.032244
     48 H20         -2.8940    -0.3460     0.0660 HC         1 MOL       0.012956
     49 H21         -3.1560     1.2490    -0.5940 HC         1 MOL       0.012956
     50 H22         -6.9050     0.8450    -0.9080 HC         1 MOL       0.101418
     51 H23         -5.5670     1.6760    -1.6710 HC         1 MOL       0.101418
     52 H24         -5.9540     0.0200    -2.1330 HC         1 MOL       0.101418
     53 H25         -4.9310     0.4210     1.8620 H          1 MOL       0.323082
     54 H26         -3.8530     2.6760     2.9410 HC         1 MOL       0.074729
     55 H27         -5.5240     2.2250     3.2500 HC         1 MOL       0.074729
     56 H28         -5.1360     3.8300     2.6090 HC         1 MOL       0.074729
     57 H29         -6.9920    -0.5660     1.1250 H          1 MOL       0.350839
     58 H30         -6.3630    -3.3960     1.4150 H1         1 MOL       0.150970
     59 H31         -7.5920    -3.0460     0.2120 H1         1 MOL       0.150970
     60 H32         -7.8450    -2.5750     1.8930 H1         1 MOL       0.150970
     61 H33          5.0980     1.0000    -1.5750 H          1 MOL       0.323082
     62 H34          7.7130     1.7100    -1.7380 HC         1 MOL       0.074729
     63 H35          7.7850     3.0760    -0.6310 HC         1 MOL       0.074729
     64 H36          6.4730     2.9570    -1.8160 HC         1 MOL       0.074729
@<TRIPOS>BOND
     1     1     2 1   
     2     1    29 1   
     3     1    30 1   
     4     1    31 1   
     5     2     3 1   
     6     2    32 1   
     7     3     4 2   
     8     3     5 1   
     9     5     6 1   
    10     5     7 1   
    11     5    25 1   
    12     6    33 1   
    13     6    34 1   
    14     6    35 1   
    15     7     8 1   
    16     7    36 1   
    17     7    37 1   
    18     8     9 1   
    19     8    38 1   
    20     8    39 1   
    21     9    10 1   
    22     9    40 1   
    23     9    41 1   
    24    10    11 2   
    25    10    42 1   
    26    11    12 1   
    27    11    43 1   
    28    12    13 1   
    29    12    44 1   
    30    12    45 1   
    31    13    14 1   
    32    13    46 1   
    33    13    47 1   
    34    14    15 1   
    35    14    48 1   
    36    14    49 1   
    37    15    16 1   
    38    15    17 1   
    39    15    21 1   
    40    16    50 1   
    41    16    51 1   
    42    16    52 1   
    43    17    18 1   
    44    17    53 1   
    45    18    19 1   
    46    18    20 2   
    47    19    54 1   
    48    19    55 1   
    49    19    56 1   
    50    21    22 2   
    51    21    23 1   
    52    23    24 1   
    53    23    57 1   
    54    24    58 1   
    55    24    59 1   
    56    24    60 1   
    57    25    26 1   
    58    25    61 1   
    59    26    27 1   
    60    26    28 2   
    61    27    62 1   
    62    27    63 1   
    63    27    64 1   
@<TRIPOS>SUBSTRUCTURE
     1 MOL         1 TEMP              0 ****  ****    0 ROOT
