@<TRIPOS>MOLECULE
MOL
   64    63     1     0     0
SMALL
resp


@<TRIPOS>ATOM
      1 C1          -7.7520    -2.2660     0.6400 CT         1 MOL      -0.513296
      2 N1          -6.8230    -1.2240     0.2550 N          1 MOL      -0.550584
      3 C2          -5.5010    -1.3390     0.5260 C          1 MOL       0.740824
      4 O1          -5.0690    -2.2270     1.2070 O          1 MOL      -0.583457
      5 C3          -4.5840    -0.2720    -0.1090 CT         1 MOL       0.317525
      6 C4          -4.3890    -0.6840    -1.5800 CT         1 MOL      -0.482915
      7 C5          -3.2650    -0.1530     0.6930 CT         1 MOL      -0.143499
      8 C6          -2.2030    -1.2610     0.5630 CT         1 MOL      -0.032157
      9 C7          -1.1900    -1.1250    -0.5930 CT         1 MOL       0.156850
     10 C8          -0.4270     0.1780    -0.6020 CM         1 MOL      -0.268700
     11 C9           0.8140     0.3890    -0.1910 CM         1 MOL      -0.268700
     12 C10          1.7770    -0.6190     0.3880 CT         1 MOL       0.156850
     13 C11          2.8250    -1.1370    -0.6150 CT         1 MOL      -0.032157
     14 C12          3.8090    -0.1240    -1.2200 CT         1 MOL      -0.143499
     15 C13          4.9580     0.3970    -0.3160 CT         1 MOL       0.317525
     16 C14          5.9530     1.2090    -1.1700 CT         1 MOL      -0.482915
     17 N2           5.6540    -0.6870     0.3590 N          1 MOL      -0.772128
     18 C15          6.3010    -1.7070    -0.2390 C          1 MOL       0.895391
     19 C16          6.9870    -2.6750     0.7040 CT         1 MOL      -0.316596
     20 O2           6.3640    -1.8580    -1.4320 O          1 MOL      -0.650753
     21 C17          4.4440     1.3010     0.8240 C          1 MOL       0.740824
     22 O3           4.6200     1.0250     1.9850 O          1 MOL      -0.583457
     23 N3           3.8090     2.4280     0.4600 N          1 MOL      -0.550584
     24 C18          3.2990     3.3580     1.4480 CT         1 MOL      -0.513296
     25 N4          -5.3140     1.0060    -0.0320 N          1 MOL      -0.772128
     26 C19         -4.8910     2.1800    -0.5810 C          1 MOL       0.895391
     27 C20         -5.6630     3.4020    -0.1220 CT         1 MOL      -0.316596
     28 O4          -3.9840     2.2680    -1.3610 O          1 MOL      -0.650753
     29 H1          -8.7600    -1.9090     0.4750 H1         1 MOL       0.200600
     30 H2          -7.6280    -2.4980     1.6880 H1         1 MOL       0.200600
     31 H3          -7.6010    -3.1760     0.0690 H1         1 MOL       0.200600
     32 H4          -7.1040    -0.5730    -0.4400 H          1 MOL       0.351581
     33 H5          -3.6970    -0.0230    -2.0760 HC         1 MOL       0.136050
     34 H6          -4.0170    -1.7000    -1.6320 HC         1 MOL       0.136050
     35 H7          -5.3330    -0.6430    -2.1120 HC         1 MOL       0.136050
     36 H8          -2.8220     0.7970     0.4260 HC         1 MOL       0.051616
     37 H9          -3.5470    -0.0780     1.7380 HC         1 MOL       0.051616
     38 H10         -2.6800    -2.2310     0.5120 HC         1 MOL       0.020307
     39 H11         -1.6330    -1.2570     1.4880 HC         1 MOL       0.020307
     40 H12         -1.6900    -1.2310    -1.5490 HC         1 MOL      -0.001636
     41 H13         -0.5030    -1.9620    -0.5240 HC         1 MOL      -0.001636
     42 H14         -0.9690     1.0250    -0.9920 HA         1 MOL       0.143185
     43 H15          1.1930     1.3950    -0.2780 HA         1 MOL       0.143185
     44 H16          2.2680    -0.1860     1.2540 HC         1 MOL      -0.001636
     45 H17          1.2320    -1.4790     0.7620 HC         1 MOL      -0.001636
     46 H18          2.2920    -1.5910    -1.4450 HC         1 MOL       0.020307
     47 H19          3.3890    -1.9360    -0.1460 HC         1 MOL       0.020307
     48 H20          3.2650     0.7260    -1.6220 HC         1 MOL       0.051616
     49 H21          4.2890    -0.6010    -2.0630 HC         1 MOL       0.051616
     50 H22          5.4560     1.9980    -1.7240 HC         1 MOL       0.136050
     51 H23          6.4350     0.5520    -1.8790 HC         1 MOL       0.136050
     52 H24          6.7130     1.6620    -0.5410 HC         1 MOL       0.136050
     53 H25          5.6390    -0.6330     1.3530 H          1 MOL       0.307994
     54 H26          6.6560    -2.5840     1.7320 HC         1 MOL       0.083403
     55 H27          8.0550    -2.4940     0.6650 HC         1 MOL       0.083403
     56 H28          6.8090    -3.6830     0.3530 HC         1 MOL       0.083403
     57 H29          3.6860     2.6380    -0.5010 H          1 MOL       0.351581
     58 H30          2.5500     2.8870     2.0720 H1         1 MOL       0.200600
     59 H31          2.8500     4.1940     0.9300 H1         1 MOL       0.200600
     60 H32          4.0960     3.7200     2.0830 H1         1 MOL       0.200600
     61 H33         -5.9200     1.1020     0.7530 H          1 MOL       0.307994
     62 H34         -6.7140     3.1890     0.0410 HC         1 MOL       0.083403
     63 H35         -5.5580     4.1790    -0.8640 HC         1 MOL       0.083403
     64 H36         -5.2400     3.7600     0.8120 HC         1 MOL       0.083403
@<TRIPOS>BOND
     1     1     2 1   
     2     1    29 1   
     3     1    30 1   
     4     1    31 1   
     5     2     3 1   
     6     2    32 1   
     7     3     4 2   
     8     3     5 1   
     9     5     6 1   
    10     5     7 1   
    11     5    25 1   
    12     6    33 1   
    13     6    34 1   
    14     6    35 1   
    15     7     8 1   
    16     7    36 1   
    17     7    37 1   
    18     8     9 1   
    19     8    38 1   
    20     8    39 1   
    21     9    10 1   
    22     9    40 1   
    23     9    41 1   
    24    10    11 2   
    25    10    42 1   
    26    11    12 1   
    27    11    43 1   
    28    12    13 1   
    29    12    44 1   
    30    12    45 1   
    31    13    14 1   
    32    13    46 1   
    33    13    47 1   
    34    14    15 1   
    35    14    48 1   
    36    14    49 1   
    37    15    16 1   
    38    15    17 1   
    39    15    21 1   
    40    16    50 1   
    41    16    51 1   
    42    16    52 1   
    43    17    18 1   
    44    17    53 1   
    45    18    19 1   
    46    18    20 2   
    47    19    54 1   
    48    19    55 1   
    49    19    56 1   
    50    21    22 2   
    51    21    23 1   
    52    23    24 1   
    53    23    57 1   
    54    24    58 1   
    55    24    59 1   
    56    24    60 1   
    57    25    26 1   
    58    25    61 1   
    59    26    27 1   
    60    26    28 2   
    61    27    62 1   
    62    27    63 1   
    63    27    64 1   
@<TRIPOS>SUBSTRUCTURE
     1 MOL         1 TEMP              0 ****  ****    0 ROOT
