@<TRIPOS>MOLECULE
MOL
64 63 1 0 1
SMALL
USER_CHARGES
@<TRIPOS>ATOM
       1 C1           2.4250     2.9330    -1.2830 CT            1 MOL       -0.341118
       2 N1           3.0780     1.6430    -1.2180 N             1 MOL       -0.566687
       3 C            2.5620     0.6380    -0.4950 C             1 MOL        0.790124
       4 O            1.4930     0.7200     0.0640 O             1 MOL       -0.614409
       5 CA           3.4200    -0.6530    -0.4070 CX            1 MOL        0.087604
       6 C1B          4.0610    -1.0330    -1.7510 CU            1 MOL       -0.403957
       7 C2B          2.5560    -1.8140     0.1240 CU            1 MOL       -0.074808
       8 CC           1.4720    -2.3350    -0.8230 CU            1 MOL        0.009178
       9 CD           0.6200    -3.4620    -0.2080 CU            1 MOL       -0.052011
      10 CE          -0.1060    -3.0700     1.0540 CM            1 MOL       -0.205485
      11 CY          -1.3870    -2.7680     1.1860 CM            1 MOL       -0.205485
      12 CG          -2.4710    -2.7640     0.1270 CU            1 MOL       -0.052011
      13 CH          -2.4000    -1.6490    -0.9370 CU            1 MOL        0.009178
      14 CI          -2.0560    -0.2200    -0.4900 CU            1 MOL       -0.074808
      15 CJ          -3.0770     0.6290     0.3060 CT            1 MOL        0.087604
      16 C14         -3.2660     0.1760     1.7660 CT            1 MOL       -0.403957
      17 N2          -4.3550     0.7510    -0.3920 N             1 MOL       -0.687760
      18 C15         -5.3930    -0.1120    -0.3730 C             1 MOL        0.892748
      19 C16         -6.6700     0.4410    -0.9770 CT            1 MOL       -0.355970
      20 O2          -5.3560    -1.2270     0.0800 O             1 MOL       -0.657967
      21 C17         -2.5560     2.0900     0.3820 C             1 MOL        0.790124
      22 O3          -3.2960     3.0230     0.1780 O             1 MOL       -0.614409
      23 N3          -1.2780     2.2780     0.7470 N             1 MOL       -0.566687
      24 C18         -0.7540     3.6200     0.8880 CT            1 MOL       -0.341118
      25 N            4.4540    -0.4390     0.6230 N             1 MOL       -0.687760
      26 C19          5.5380     0.3650     0.5580 C             1 MOL        0.892748
      27 C20          6.4030     0.3870     1.8000 CT            1 MOL       -0.355970
      28 O4           5.8150     1.0480    -0.3970 O             1 MOL       -0.657967
      29 H1           2.9080     3.5230    -2.0500 H1            1 MOL        0.148497
      30 H2           2.4840     3.4680    -0.3410 H1            1 MOL        0.148497
      31 H3           1.3850     2.8050    -1.5410 H1            1 MOL        0.148497
      32 H4           4.0560     1.6100    -1.4080 H             1 MOL        0.393602
      33 HB1          4.8280    -0.3380    -2.0530 HC            1 MOL        0.126805
      34 HB2          3.3100    -1.0710    -2.5300 HC            1 MOL        0.126805
      35 HB3          4.5140    -2.0140    -1.6630 HC            1 MOL        0.126805
      36 HB4          3.2360    -2.6300     0.3620 HC            1 MOL        0.038037
      37 HB5          2.0960    -1.4890     1.0480 HC            1 MOL        0.038037
      38 HC1          0.8230    -1.5190    -1.1140 HC            1 MOL        0.012783
      39 HC2          1.9280    -2.7230    -1.7280 HC            1 MOL        0.012783
      40 HD1          1.2660    -4.3130     0.0060 HC            1 MOL        0.066309
      41 HD2         -0.0890    -3.7980    -0.9570 HC            1 MOL        0.066309
      42 HE           0.5020    -3.0310     1.9450 HA            1 MOL        0.119621
      43 HF          -1.7150    -2.5000     2.1770 HA            1 MOL        0.119621
      44 HG1         -2.4580    -3.7120    -0.4060 HC            1 MOL        0.066309
      45 HG2         -3.4330    -2.7150     0.6160 HC            1 MOL        0.066309
      46 HH1         -1.6240    -1.9150    -1.6520 HC            1 MOL        0.012783
      47 HH2         -3.3310    -1.6560    -1.4890 HC            1 MOL        0.012783
      48 HI1         -1.1330    -0.2690     0.0730 HC            1 MOL        0.038037
      49 HI2         -1.8310     0.3380    -1.3960 HC            1 MOL        0.038037
      50 H22         -3.7410    -0.7900     1.8140 HC            1 MOL        0.126805
      51 H23         -2.3090     0.1290     2.2730 HC            1 MOL        0.126805
      52 H24         -3.8950     0.8880     2.2900 HC            1 MOL        0.126805
      53 H25         -4.5650     1.6930    -0.6430 H             1 MOL        0.327288
      54 H26         -7.2140     0.9890    -0.2130 HC            1 MOL        0.093281
      55 H27         -7.2850    -0.3840    -1.3090 HC            1 MOL        0.093281
      56 H28         -6.4790     1.1140    -1.8050 HC            1 MOL        0.093281
      57 H29         -0.6170     1.5360     0.7090 H             1 MOL        0.393602
      58 H30          0.2540     3.5490     1.2710 H1            1 MOL        0.148497
      59 H31         -1.3590     4.1880     1.5820 H1            1 MOL        0.148497
      60 H32         -0.7400     4.1500    -0.0580 H1            1 MOL        0.148497
      61 H            4.2890    -0.8940     1.4910 H             1 MOL        0.327288
      62 H34          7.4360     0.4860     1.4980 HC            1 MOL        0.093281
      63 H35          6.2870    -0.4950     2.4180 HC            1 MOL        0.093281
      64 H36          6.1400     1.2600     2.3890 HC            1 MOL        0.093281
@<TRIPOS>BOND
       1        1        2 1
       2        1       29 1
       3        1       30 1
       4        1       31 1
       5        2        3 1
       6        2       32 1
       7        3        4 2
       8        3        5 1
       9        5        6 1
      10        5        7 1
      11        5       25 1
      12        6       33 1
      13        6       34 1
      14        6       35 1
      15        7        8 1
      16        7       36 1
      17        7       37 1
      18        8        9 1
      19        8       38 1
      20        8       39 1
      21        9       10 1
      22        9       40 1
      23        9       41 1
      24       10       11 2
      25       10       42 1
      26       11       12 1
      27       11       43 1
      28       12       13 1
      29       12       44 1
      30       12       45 1
      31       13       14 1
      32       13       46 1
      33       13       47 1
      34       14       15 1
      35       14       48 1
      36       14       49 1
      37       15       16 1
      38       15       17 1
      39       15       21 1
      40       16       50 1
      41       16       51 1
      42       16       52 1
      43       17       18 1
      44       17       53 1
      45       18       19 1
      46       18       20 2
      47       19       54 1
      48       19       55 1
      49       19       56 1
      50       21       22 2
      51       21       23 1
      52       23       24 1
      53       23       57 1
      54       24       58 1
      55       24       59 1
      56       24       60 1
      57       25       26 1
      58       25       61 1
      59       26       27 1
      60       26       28 2
      61       27       62 1
      62       27       63 1
      63       27       64 1
@<TRIPOS>SUBSTRUCTURE
       1 MOL             1 RESIDUE    0 **** ROOT      0
