@<TRIPOS>MOLECULE
MOL
64 63 1 0 1
SMALL
USER_CHARGES
@<TRIPOS>ATOM
       1 C1           7.4420    -2.8430    -0.7730 CT            1 MOL       -0.285129
       2 N1           6.3550    -2.1110    -0.1540 N             1 MOL       -0.583945
       3 C            6.0140    -0.8920    -0.6190 C             1 MOL        0.847644
       4 O            6.4760    -0.4360    -1.6320 O             1 MOL       -0.632665
       5 CA           4.9060    -0.1090     0.1270 CX            1 MOL       -0.054554
       6 C1B          4.5770    -0.6450     1.5260 CU            1 MOL       -0.384284
       7 C2B          3.6720    -0.1680    -0.8040 CU            1 MOL       -0.048964
       8 CC           2.4170     0.5970    -0.3320 CU            1 MOL        0.034174
       9 CD           1.3160    -0.3010     0.2550 CU            1 MOL        0.155874
      10 CE           0.1410     0.5000     0.7540 CM            1 MOL       -0.278275
      11 CY          -1.1020     0.5070     0.3000 CM            1 MOL       -0.278275
      12 CG          -1.6790    -0.2970    -0.8390 CU            1 MOL        0.155874
      13 CH          -2.5470    -1.4860    -0.3860 CU            1 MOL        0.034174
      14 CI          -3.8150    -1.1870     0.4320 CU            1 MOL       -0.048964
      15 CJ          -5.0090    -0.4900    -0.2730 CT            1 MOL       -0.054554
      16 C14         -5.3410    -1.1820    -1.6010 CT            1 MOL       -0.384284
      17 N2          -4.6790     0.9140    -0.5020 N             1 MOL       -0.587643
      18 C15         -5.6360     1.8070    -0.8950 C             1 MOL        0.828241
      19 C16         -5.2610     3.2610    -0.7180 CT            1 MOL       -0.348393
      20 O2          -6.6950     1.4700    -1.3450 O             1 MOL       -0.613047
      21 C17         -6.1500    -0.5300     0.7730 C             1 MOL        0.847644
      22 O3          -6.1000     0.2010     1.7270 O             1 MOL       -0.632665
      23 N3          -7.1140    -1.4620     0.6270 N             1 MOL       -0.583945
      24 C18         -8.2340    -1.5020     1.5460 CT            1 MOL       -0.285129
      25 N            5.3320     1.2860     0.2150 N             1 MOL       -0.587643
      26 C19          6.5370     1.6280     0.7540 C             1 MOL        0.828241
      27 C20          6.9920     3.0400     0.4630 CT            1 MOL       -0.348393
      28 O4           7.1940     0.8660     1.4080 O             1 MOL       -0.613047
      29 H1           7.4770    -3.8370    -0.3460 H1            1 MOL        0.138690
      30 H2           7.2670    -2.9230    -1.8350 H1            1 MOL        0.138690
      31 H3           8.3980    -2.3540    -0.6180 H1            1 MOL        0.138690
      32 H4           6.1630    -2.3140     0.7980 H             1 MOL        0.369660
      33 HB1          4.1570    -1.6440     1.4700 HC            1 MOL        0.118143
      34 HB2          5.4520    -0.6560     2.1590 HC            1 MOL        0.118143
      35 HB3          3.8430    -0.0020     1.9950 HC            1 MOL        0.118143
      36 HB4          3.4260    -1.2150    -0.9590 HC            1 MOL        0.034806
      37 HB5          3.9900     0.2070    -1.7700 HC            1 MOL        0.034806
      38 HC1          1.9920     1.1290    -1.1780 HC            1 MOL        0.005056
      39 HC2          2.6880     1.3590     0.3920 HC            1 MOL        0.005056
      40 HD1          1.0080    -1.0220    -0.4930 HC            1 MOL       -0.004054
      41 HD2          1.7170    -0.8760     1.0860 HC            1 MOL       -0.004054
      42 HE           0.3670     1.1510     1.5850 HA            1 MOL        0.140933
      43 HF          -1.7930     1.1630     0.8080 HA            1 MOL        0.140933
      44 HG1         -0.8810    -0.6910    -1.4570 HC            1 MOL       -0.004054
      45 HG2         -2.2600     0.3600    -1.4780 HC            1 MOL       -0.004054
      46 HH1         -1.9270    -2.1300     0.2320 HC            1 MOL        0.005056
      47 HH2         -2.8090    -2.0740    -1.2600 HC            1 MOL        0.005056
      48 HI1         -3.5660    -0.6140     1.3190 HC            1 MOL        0.034806
      49 HI2         -4.1880    -2.1400     0.7950 HC            1 MOL        0.034806
      50 H22         -6.2630    -0.8090    -2.0210 HC            1 MOL        0.118143
      51 H23         -5.4110    -2.2580    -1.4690 HC            1 MOL        0.118143
      52 H24         -4.5540    -0.9880    -2.3170 HC            1 MOL        0.118143
      53 H25         -4.0200     1.2880     0.1450 H             1 MOL        0.319385
      54 H26         -5.4510     3.5470     0.3120 HC            1 MOL        0.092958
      55 H27         -4.2140     3.4400    -0.9350 HC            1 MOL        0.092958
      56 H28         -5.8790     3.8660    -1.3650 HC            1 MOL        0.092958
      57 H29         -7.2520    -1.8560    -0.2720 H             1 MOL        0.369660
      58 H30         -8.8150    -2.3920     1.3430 H1            1 MOL        0.138690
      59 H31         -7.8700    -1.5440     2.5620 H1            1 MOL        0.138690
      60 H32         -8.8700    -0.6290     1.4450 H1            1 MOL        0.138690
      61 H            5.0280     1.8660    -0.5350 H             1 MOL        0.319385
      62 H34          6.1660     3.7410     0.4530 HC            1 MOL        0.092958
      63 H35          7.7170     3.3370     1.2070 HC            1 MOL        0.092958
      64 H36          7.4690     3.0580    -0.5130 HC            1 MOL        0.092958
@<TRIPOS>BOND
       1        1        2 1
       2        1       29 1
       3        1       30 1
       4        1       31 1
       5        2        3 1
       6        2       32 1
       7        3        4 2
       8        3        5 1
       9        5        6 1
      10        5        7 1
      11        5       25 1
      12        6       33 1
      13        6       34 1
      14        6       35 1
      15        7        8 1
      16        7       36 1
      17        7       37 1
      18        8        9 1
      19        8       38 1
      20        8       39 1
      21        9       10 1
      22        9       40 1
      23        9       41 1
      24       10       11 2
      25       10       42 1
      26       11       12 1
      27       11       43 1
      28       12       13 1
      29       12       44 1
      30       12       45 1
      31       13       14 1
      32       13       46 1
      33       13       47 1
      34       14       15 1
      35       14       48 1
      36       14       49 1
      37       15       16 1
      38       15       17 1
      39       15       21 1
      40       16       50 1
      41       16       51 1
      42       16       52 1
      43       17       18 1
      44       17       53 1
      45       18       19 1
      46       18       20 2
      47       19       54 1
      48       19       55 1
      49       19       56 1
      50       21       22 2
      51       21       23 1
      52       23       24 1
      53       23       57 1
      54       24       58 1
      55       24       59 1
      56       24       60 1
      57       25       26 1
      58       25       61 1
      59       26       27 1
      60       26       28 2
      61       27       62 1
      62       27       63 1
      63       27       64 1
@<TRIPOS>SUBSTRUCTURE
       1 MOL             1 RESIDUE    0 **** ROOT      0
