@<TRIPOS>MOLECULE
MOL
64 63 1 0 1
SMALL
USER_CHARGES
@<TRIPOS>ATOM
       1 C1           7.7840    -2.4280     0.0120 CT            1 MOL       -0.374411
       2 N1           6.6990    -1.6180     0.5280 N             1 MOL       -0.580573
       3 C            6.1640    -0.6250    -0.2020 C             1 MOL        0.814817
       4 O            6.5600    -0.3790    -1.3140 O             1 MOL       -0.621170
       5 CA           4.9810     0.1550     0.4230 CX            1 MOL        0.124774
       6 C1B          5.2950     0.5380     1.8790 CU            1 MOL       -0.462793
       7 C2B          3.7500    -0.7820     0.2980 CU            1 MOL       -0.045322
       8 CC           2.4140    -0.2360     0.8070 CU            1 MOL       -0.072607
       9 CD           1.2800    -1.2740     0.7320 CU            1 MOL        0.117881
      10 CE           0.9540    -1.7380    -0.6680 CM            1 MOL       -0.259722
      11 CY          -0.0310    -1.3230    -1.4500 CM            1 MOL       -0.259722
      12 CG          -1.0880    -0.2920    -1.1530 CU            1 MOL        0.117881
      13 CH          -2.5060    -0.8800    -1.2300 CU            1 MOL       -0.072607
      14 CI          -3.6280     0.1550    -0.9940 CU            1 MOL       -0.045322
      15 CJ          -4.3620     0.0350     0.3590 CT            1 MOL        0.124774
      16 C14         -3.3930     0.2470     1.5310 CT            1 MOL       -0.462793
      17 N2          -4.9450    -1.2950     0.5140 N             1 MOL       -0.671914
      18 C15         -6.0340    -1.6870    -0.2010 C             1 MOL        0.860779
      19 C16         -6.7150    -2.9410     0.2980 CT            1 MOL       -0.327836
      20 O2          -6.4310    -1.0810    -1.1590 O             1 MOL       -0.645600
      21 C17         -5.5010     1.0680     0.5650 C             1 MOL        0.814817
      22 O3          -6.2240     0.9540     1.5190 O             1 MOL       -0.621170
      23 N3          -5.5840     2.1150    -0.2810 N             1 MOL       -0.580573
      24 C18         -6.6860     3.0490    -0.1660 CT            1 MOL       -0.374411
      25 N            4.8540     1.3350    -0.4240 N             1 MOL       -0.671914
      26 C19          4.2140     2.4970    -0.1710 C             1 MOL        0.860779
      27 C20          4.3920     3.5500    -1.2480 CT            1 MOL       -0.327836
      28 O4           3.5700     2.7270     0.8200 O             1 MOL       -0.645600
      29 H1           7.4960    -2.9060    -0.9140 H1            1 MOL        0.163845
      30 H2           8.6660    -1.8280    -0.1730 H1            1 MOL        0.163845
      31 H3           8.0210    -3.1890     0.7440 H1            1 MOL        0.163845
      32 H4           6.3910    -1.7710     1.4580 H             1 MOL        0.370559
      33 HB1          4.5560     1.2250     2.2550 HC            1 MOL        0.134457
      34 HB2          6.2660     1.0170     1.9440 HC            1 MOL        0.134457
      35 HB3          5.2990    -0.3360     2.5230 HC            1 MOL        0.134457
      36 HB4          3.6570    -1.0460    -0.7510 HC            1 MOL        0.015837
      37 HB5          3.9740    -1.7040     0.8310 HC            1 MOL        0.015837
      38 HC1          2.5130     0.0850     1.8390 HC            1 MOL        0.048952
      39 HC2          2.1300     0.6410     0.2410 HC            1 MOL        0.048952
      40 HD1          0.4010    -0.8480     1.2020 HC            1 MOL        0.012802
      41 HD2          1.5510    -2.1430     1.3290 HC            1 MOL        0.012802
      42 HE           1.6140    -2.4900    -1.0710 HA            1 MOL        0.130964
      43 HF          -0.1060    -1.7710    -2.4290 HA            1 MOL        0.130964
      44 HG1         -1.0040     0.5090    -1.8850 HC            1 MOL        0.012802
      45 HG2         -0.9230     0.1660    -0.1850 HC            1 MOL        0.012802
      46 HH1         -2.5960    -1.7010    -0.5280 HC            1 MOL        0.048952
      47 HH2         -2.6390    -1.3210    -2.2130 HC            1 MOL        0.048952
      48 HI1         -3.2040     1.1540    -1.0580 HC            1 MOL        0.015837
      49 HI2         -4.3620     0.0650    -1.7830 HC            1 MOL        0.015837
      50 H22         -2.6140    -0.5060     1.5270 HC            1 MOL        0.134457
      51 H23         -2.9270     1.2230     1.4640 HC            1 MOL        0.134457
      52 H24         -3.9280     0.1940     2.4720 HC            1 MOL        0.134457
      53 H25         -4.8570    -1.6970     1.4200 H             1 MOL        0.334738
      54 H26         -7.3950    -2.6710     1.1010 HC            1 MOL        0.085782
      55 H27         -7.2880    -3.3760    -0.5080 HC            1 MOL        0.085782
      56 H28         -6.0060    -3.6670     0.6790 HC            1 MOL        0.085782
      57 H29         -5.1680     2.0210    -1.1770 H             1 MOL        0.370559
      58 H30         -6.7360     3.4290     0.8430 H1            1 MOL        0.163845
      59 H31         -7.6350     2.5830    -0.4060 H1            1 MOL        0.163845
      60 H32         -6.5110     3.8730    -0.8450 H1            1 MOL        0.163845
      61 H            5.3580     1.2570    -1.2800 H             1 MOL        0.334738
      62 H34          5.2850     4.1280    -1.0290 HC            1 MOL        0.085782
      63 H35          3.5420     4.2160    -1.2250 HC            1 MOL        0.085782
      64 H36          4.4980     3.1230    -2.2380 HC            1 MOL        0.085782
@<TRIPOS>BOND
       1        1        2 1
       2        1       29 1
       3        1       30 1
       4        1       31 1
       5        2        3 1
       6        2       32 1
       7        3        4 2
       8        3        5 1
       9        5        6 1
      10        5        7 1
      11        5       25 1
      12        6       33 1
      13        6       34 1
      14        6       35 1
      15        7        8 1
      16        7       36 1
      17        7       37 1
      18        8        9 1
      19        8       38 1
      20        8       39 1
      21        9       10 1
      22        9       40 1
      23        9       41 1
      24       10       11 2
      25       10       42 1
      26       11       12 1
      27       11       43 1
      28       12       13 1
      29       12       44 1
      30       12       45 1
      31       13       14 1
      32       13       46 1
      33       13       47 1
      34       14       15 1
      35       14       48 1
      36       14       49 1
      37       15       16 1
      38       15       17 1
      39       15       21 1
      40       16       50 1
      41       16       51 1
      42       16       52 1
      43       17       18 1
      44       17       53 1
      45       18       19 1
      46       18       20 2
      47       19       54 1
      48       19       55 1
      49       19       56 1
      50       21       22 2
      51       21       23 1
      52       23       24 1
      53       23       57 1
      54       24       58 1
      55       24       59 1
      56       24       60 1
      57       25       26 1
      58       25       61 1
      59       26       27 1
      60       26       28 2
      61       27       62 1
      62       27       63 1
      63       27       64 1
@<TRIPOS>SUBSTRUCTURE
       1 MOL             1 RESIDUE    0 **** ROOT      0
