@<TRIPOS>MOLECULE
MOL
   64    63     1     0     0
SMALL
resp


@<TRIPOS>ATOM
      1 C1          -6.9980     3.0330     1.2530 CT         1 MOL      -0.275404
      2 N1          -6.0240     1.9610     1.2050 N          1 MOL      -0.602178
      3 C2          -5.8980     1.2150     0.0880 C          1 MOL       0.862429
      4 O1          -6.4570     1.4940    -0.9390 O          1 MOL      -0.630025
      5 C3          -4.9080     0.0240     0.1120 CT         1 MOL      -0.042441
      6 C4          -4.4540    -0.4000     1.5140 CT         1 MOL      -0.313983
      7 C5          -3.7090     0.4780    -0.7550 CT         1 MOL      -0.024765
      8 C6          -2.5800    -0.5550    -0.9600 CT         1 MOL       0.036717
      9 C7          -1.3300    -0.3020    -0.1010 CT         1 MOL       0.101183
     10 C8          -0.2850    -1.3700    -0.2950 CM         1 MOL      -0.257963
     11 C9           0.9250    -1.2470    -0.8160 CM         1 MOL      -0.257963
     12 C10          1.5830     0.0030    -1.3470 CT         1 MOL       0.101183
     13 C11          2.6180     0.6240    -0.3920 CT         1 MOL       0.036717
     14 C12          3.7970    -0.3080    -0.0940 CT         1 MOL      -0.024765
     15 C13          4.9620     0.3400     0.6860 CT         1 MOL      -0.042441
     16 C14          4.4950     0.8210     2.0680 CT         1 MOL      -0.313983
     17 N2           5.4860     1.5040    -0.0230 N          1 MOL      -0.633026
     18 C15          6.2210     1.3760    -1.1610 C          1 MOL       0.833492
     19 C16          6.9800     2.6140    -1.5820 CT         1 MOL      -0.371773
     20 O2           6.2680     0.3520    -1.7870 O          1 MOL      -0.621972
     21 C17          6.1570    -0.6130     0.9560 C          1 MOL       0.862429
     22 O3           7.1690    -0.1590     1.4190 O          1 MOL      -0.630025
     23 N3           5.9880    -1.9350     0.7500 N          1 MOL      -0.602178
     24 C18          7.1110    -2.8380     0.9100 CT         1 MOL      -0.275404
     25 N4          -5.5500    -1.0990    -0.5660 N          1 MOL      -0.633026
     26 C19         -6.7770    -1.5520    -0.1830 C          1 MOL       0.833492
     27 C20         -7.4620    -2.4660    -1.1750 CT         1 MOL      -0.371773
     28 O4          -7.2840    -1.2480     0.8620 O          1 MOL      -0.621972
     29 H1          -6.8440     3.7000     0.4170 H1         1 MOL       0.136635
     30 H2          -6.8600     3.5850     2.1730 H1         1 MOL       0.136635
     31 H3          -8.0140     2.6570     1.2100 H1         1 MOL       0.136635
     32 H4          -5.7740     1.5440     2.0710 H          1 MOL       0.370003
     33 H5          -3.8190    -1.2730     1.4390 HC         1 MOL       0.102904
     34 H6          -3.8820     0.3880     1.9920 HC         1 MOL       0.102904
     35 H7          -5.2970    -0.6630     2.1370 HC         1 MOL       0.102904
     36 H8          -4.1130     0.7770    -1.7150 HC         1 MOL       0.020984
     37 H9          -3.3030     1.3810    -0.3090 HC         1 MOL       0.020984
     38 H10         -2.9480    -1.5600    -0.7760 HC         1 MOL       0.006390
     39 H11         -2.2730    -0.5380    -2.0010 HC         1 MOL       0.006390
     40 H12         -0.9330     0.6800    -0.3330 HC         1 MOL       0.010421
     41 H13         -1.6080    -0.2770     0.9500 HC         1 MOL       0.010421
     42 H14         -0.5870    -2.3540     0.0320 HA         1 MOL       0.131917
     43 H15          1.5250    -2.1420    -0.8710 HA         1 MOL       0.131917
     44 H16          2.0750    -0.2370    -2.2880 HC         1 MOL       0.010421
     45 H17          0.8370     0.7540    -1.5790 HC         1 MOL       0.010421
     46 H18          2.1120     0.9010     0.5280 HC         1 MOL       0.006390
     47 H19          2.9890     1.5390    -0.8400 HC         1 MOL       0.006390
     48 H20          4.1790    -0.6900    -1.0320 HC         1 MOL       0.020984
     49 H21          3.4370    -1.1520     0.4870 HC         1 MOL       0.020984
     50 H22          5.3350     1.2060     2.6330 HC         1 MOL       0.102904
     51 H23          3.7490     1.6010     1.9720 HC         1 MOL       0.102904
     52 H24          4.0590     0.0000     2.6260 HC         1 MOL       0.102904
     53 H25          5.7180     2.2830     0.5530 H          1 MOL       0.341374
     54 H26          7.9190     2.6470    -1.0380 HC         1 MOL       0.100735
     55 H27          6.4280     3.5230    -1.3700 HC         1 MOL       0.100735
     56 H28          7.1950     2.5530    -2.6390 HC         1 MOL       0.100735
     57 H29          5.2710    -2.2190     0.1270 H          1 MOL       0.370003
     58 H30          6.7510    -3.8540     0.8200 H1         1 MOL       0.136635
     59 H31          7.5470    -2.7050     1.8890 H1         1 MOL       0.136635
     60 H32          7.8790    -2.6620     0.1650 H1         1 MOL       0.136635
     61 H33         -5.3640    -1.1630    -1.5420 H          1 MOL       0.341374
     62 H34         -7.9650    -1.8560    -1.9200 HC         1 MOL       0.100735
     63 H35         -8.2020    -3.0570    -0.6560 HC         1 MOL       0.100735
     64 H36         -6.7590    -3.1170    -1.6820 HC         1 MOL       0.100735
@<TRIPOS>BOND
     1     1     2 1   
     2     1    29 1   
     3     1    30 1   
     4     1    31 1   
     5     2     3 1   
     6     2    32 1   
     7     3     4 2   
     8     3     5 1   
     9     5     6 1   
    10     5     7 1   
    11     5    25 1   
    12     6    33 1   
    13     6    34 1   
    14     6    35 1   
    15     7     8 1   
    16     7    36 1   
    17     7    37 1   
    18     8     9 1   
    19     8    38 1   
    20     8    39 1   
    21     9    10 1   
    22     9    40 1   
    23     9    41 1   
    24    10    11 2   
    25    10    42 1   
    26    11    12 1   
    27    11    43 1   
    28    12    13 1   
    29    12    44 1   
    30    12    45 1   
    31    13    14 1   
    32    13    46 1   
    33    13    47 1   
    34    14    15 1   
    35    14    48 1   
    36    14    49 1   
    37    15    16 1   
    38    15    17 1   
    39    15    21 1   
    40    16    50 1   
    41    16    51 1   
    42    16    52 1   
    43    17    18 1   
    44    17    53 1   
    45    18    19 1   
    46    18    20 2   
    47    19    54 1   
    48    19    55 1   
    49    19    56 1   
    50    21    22 2   
    51    21    23 1   
    52    23    24 1   
    53    23    57 1   
    54    24    58 1   
    55    24    59 1   
    56    24    60 1   
    57    25    26 1   
    58    25    61 1   
    59    26    27 1   
    60    26    28 2   
    61    27    62 1   
    62    27    63 1   
    63    27    64 1   
@<TRIPOS>SUBSTRUCTURE
     1 MOL         1 TEMP              0 ****  ****    0 ROOT
