@<TRIPOS>MOLECULE
MOL
64 63 1 0 1
SMALL
USER_CHARGES
@<TRIPOS>ATOM
       1 C1           6.9240     2.8060    -1.1460 CT            1 MOL       -0.322844
       2 N1           6.1020     1.6300    -1.3480 N             1 MOL       -0.578209
       3 C            5.2840     1.1990    -0.3660 C             1 MOL        0.781219
       4 O            5.0950     1.8320     0.6390 O             1 MOL       -0.608726
       5 CA           4.4760    -0.1000    -0.6080 CX            1 MOL        0.152089
       6 C1B          5.0340    -0.9950    -1.7220 CU            1 MOL       -0.320035
       7 C2B          3.0460     0.3930    -0.9550 CU            1 MOL        0.039694
       8 CC           2.0050    -0.6340    -1.4310 CU            1 MOL        0.035612
       9 CD           1.5000    -1.6820    -0.4210 CU            1 MOL        0.159771
      10 CE           0.7510    -1.0840     0.7440 CM            1 MOL       -0.245141
      11 CY          -0.5070    -1.2930     1.1020 CM            1 MOL       -0.245141
      12 CG          -1.5290    -2.1890     0.4480 CU            1 MOL        0.159771
      13 CH          -2.5920    -1.4420    -0.3770 CU            1 MOL        0.035612
      14 CI          -3.4250    -0.4680     0.4670 CU            1 MOL        0.039694
      15 CJ          -4.6470     0.1840    -0.2190 CT            1 MOL        0.152089
      16 C14         -4.3210     0.6990    -1.6330 CT            1 MOL       -0.320035
      17 N2          -5.1630     1.2760     0.6250 N             1 MOL       -0.714356
      18 C15         -4.5110     2.4450     0.8840 C             1 MOL        0.833419
      19 C16         -5.1180     3.2670     2.0040 CT            1 MOL       -0.294959
      20 O2          -3.5370     2.8130     0.2910 O             1 MOL       -0.613147
      21 C17         -5.8010    -0.8310    -0.3620 C             1 MOL        0.781219
      22 O3          -5.6220    -2.0170    -0.3190 O             1 MOL       -0.608726
      23 N3          -7.0310    -0.3020    -0.5550 N             1 MOL       -0.578209
      24 C18         -8.1650    -1.1450    -0.8730 CT            1 MOL       -0.322844
      25 N            4.4410    -0.8310     0.6560 N             1 MOL       -0.714356
      26 C19          5.5900    -1.1610     1.3130 C             1 MOL        0.833419
      27 C20          5.4060    -1.5670     2.7580 CT            1 MOL       -0.294959
      28 O4           6.6700    -1.1320     0.7900 O             1 MOL       -0.613147
      29 H1           7.4010     3.0590    -2.0840 H1            1 MOL        0.149022
      30 H2           6.3040     3.6330    -0.8320 H1            1 MOL        0.149022
      31 H3           7.6850     2.6410    -0.3920 H1            1 MOL        0.149022
      32 H4           6.4140     0.9700    -2.0200 H             1 MOL        0.348736
      33 HB1          4.9080    -0.5270    -2.6940 HC            1 MOL        0.092711
      34 HB2          4.4950    -1.9330    -1.7350 HC            1 MOL        0.092711
      35 HB3          6.0780    -1.2210    -1.5620 HC            1 MOL        0.092711
      36 HB4          3.1590     1.1200    -1.7540 HC            1 MOL       -0.006065
      37 HB5          2.6700     0.9530    -0.1060 HC            1 MOL       -0.006065
      38 HC1          1.1470    -0.0650    -1.7770 HC            1 MOL       -0.001674
      39 HC2          2.3870    -1.1560    -2.3030 HC            1 MOL       -0.001674
      40 HD1          2.3360    -2.2670    -0.0510 HC            1 MOL       -0.018870
      41 HD2          0.8600    -2.3700    -0.9590 HC            1 MOL       -0.018870
      42 HE           1.3130    -0.3950     1.3560 HA            1 MOL        0.130466
      43 HF          -0.8580    -0.7570     1.9700 HA            1 MOL        0.130466
      44 HG1         -2.0310    -2.7650     1.2230 HC            1 MOL       -0.018870
      45 HG2         -1.0440    -2.9130    -0.1970 HC            1 MOL       -0.018870
      46 HH1         -3.2400    -2.1760    -0.8360 HC            1 MOL       -0.001674
      47 HH2         -2.0910    -0.8990    -1.1730 HC            1 MOL       -0.001674
      48 HI1         -3.7780    -0.9790     1.3580 HC            1 MOL       -0.006065
      49 HI2         -2.7880     0.3450     0.7910 HC            1 MOL       -0.006065
      50 H22         -4.1660    -0.1380    -2.3030 HC            1 MOL        0.092711
      51 H23         -5.1380     1.2970    -2.0200 HC            1 MOL        0.092711
      52 H24         -3.4330     1.3120    -1.6210 HC            1 MOL        0.092711
      53 H25         -5.8200     0.9970     1.3210 H             1 MOL        0.305036
      54 H26         -6.2010     3.2130     2.0120 HC            1 MOL        0.079797
      55 H27         -4.8050     4.2940     1.8910 HC            1 MOL        0.079797
      56 H28         -4.7520     2.8980     2.9570 HC            1 MOL        0.079797
      57 H29         -7.1050     0.6760    -0.7120 H             1 MOL        0.348736
      58 H30         -9.0640    -0.5450    -0.8310 H1            1 MOL        0.149022
      59 H31         -8.0770    -1.5830    -1.8610 H1            1 MOL        0.149022
      60 H32         -8.2420    -1.9450    -0.1520 H1            1 MOL        0.149022
      61 H            3.6820    -0.5900     1.2530 H             1 MOL        0.305036
      62 H34          5.3550    -0.6700     3.3670 HC            1 MOL        0.079797
      63 H35          4.4940    -2.1350     2.9070 HC            1 MOL        0.079797
      64 H36          6.2590    -2.1510     3.0720 HC            1 MOL        0.079797
@<TRIPOS>BOND
       1        1        2 1
       2        1       29 1
       3        1       30 1
       4        1       31 1
       5        2        3 1
       6        2       32 1
       7        3        4 2
       8        3        5 1
       9        5        6 1
      10        5        7 1
      11        5       25 1
      12        6       33 1
      13        6       34 1
      14        6       35 1
      15        7        8 1
      16        7       36 1
      17        7       37 1
      18        8        9 1
      19        8       38 1
      20        8       39 1
      21        9       10 1
      22        9       40 1
      23        9       41 1
      24       10       11 2
      25       10       42 1
      26       11       12 1
      27       11       43 1
      28       12       13 1
      29       12       44 1
      30       12       45 1
      31       13       14 1
      32       13       46 1
      33       13       47 1
      34       14       15 1
      35       14       48 1
      36       14       49 1
      37       15       16 1
      38       15       17 1
      39       15       21 1
      40       16       50 1
      41       16       51 1
      42       16       52 1
      43       17       18 1
      44       17       53 1
      45       18       19 1
      46       18       20 2
      47       19       54 1
      48       19       55 1
      49       19       56 1
      50       21       22 2
      51       21       23 1
      52       23       24 1
      53       23       57 1
      54       24       58 1
      55       24       59 1
      56       24       60 1
      57       25       26 1
      58       25       61 1
      59       26       27 1
      60       26       28 2
      61       27       62 1
      62       27       63 1
      63       27       64 1
@<TRIPOS>SUBSTRUCTURE
       1 MOL             1 RESIDUE    0 **** ROOT      0
