@<TRIPOS>MOLECULE
MOL
64 63 1 0 1
SMALL
USER_CHARGES
@<TRIPOS>ATOM
       1 C1           6.3250     1.6420     2.6030 CT            1 MOL       -0.346569
       2 N1           5.8560     0.7980     1.5260 N             1 MOL       -0.524801
       3 C            5.4900     1.3280     0.3480 C             1 MOL        0.764804
       4 O            5.4700     2.5150     0.1510 O             1 MOL       -0.611476
       5 CA           5.0460     0.3320    -0.7530 CX            1 MOL        0.025252
       6 C1B          4.7790     1.1220    -2.0380 CU            1 MOL       -0.245885
       7 C2B          3.7870    -0.4530    -0.3210 CU            1 MOL       -0.044162
       8 CC           2.5740     0.4110     0.0400 CU            1 MOL        0.025238
       9 CD           1.4100    -0.4420     0.5630 CU            1 MOL        0.113542
      10 CE           0.2260     0.3980     0.9660 CM            1 MOL       -0.248973
      11 CY          -0.9970     0.3960     0.4610 CM            1 MOL       -0.248973
      12 CG          -1.5400    -0.4620    -0.6560 CU            1 MOL        0.113542
      13 CH          -2.4570    -1.6030    -0.1760 CU            1 MOL        0.025238
      14 CI          -3.7540    -1.2280     0.5600 CU            1 MOL       -0.044162
      15 CJ          -4.8960    -0.5490    -0.2410 CT            1 MOL        0.025252
      16 C14         -5.1810    -1.3090    -1.5430 CT            1 MOL       -0.245885
      17 N2          -4.5210     0.8320    -0.5340 N             1 MOL       -0.592107
      18 C15         -5.4360     1.7220    -1.0220 C             1 MOL        0.777183
      19 C16         -5.0320     3.1750    -0.9130 CT            1 MOL       -0.418965
      20 O2          -6.4830     1.3840    -1.5000 O             1 MOL       -0.606595
      21 C17         -6.0870    -0.5030     0.7470 C             1 MOL        0.764804
      22 O3          -6.0650     0.2790     1.6610 O             1 MOL       -0.611476
      23 N3          -7.0650    -1.4200     0.6060 N             1 MOL       -0.524801
      24 C18         -8.2290    -1.3820     1.4680 CT            1 MOL       -0.346569
      25 N            6.1430    -0.5980    -1.0900 N             1 MOL       -0.592107
      26 C19          6.6230    -1.6470    -0.3920 C             1 MOL        0.777183
      27 C20          7.6680    -2.4770    -1.1080 CT            1 MOL       -0.418965
      28 O4           6.2580    -1.9500     0.7190 O             1 MOL       -0.606595
      29 H1           6.5040     1.0210     3.4700 H1            1 MOL        0.151044
      30 H2           5.5840     2.3900     2.8510 H1            1 MOL        0.151044
      31 H3           7.2450     2.1530     2.3400 H1            1 MOL        0.151044
      32 H4           5.9470    -0.1910     1.6040 H             1 MOL        0.358086
      33 HB1          4.4330     0.4480    -2.8160 HC            1 MOL        0.079774
      34 HB2          4.0380     1.8870    -1.8780 HC            1 MOL        0.079774
      35 HB3          5.6800     1.6220    -2.3760 HC            1 MOL        0.079774
      36 HB4          4.0330    -1.0860     0.5190 HC            1 MOL        0.022709
      37 HB5          3.5270    -1.1170    -1.1420 HC            1 MOL        0.022709
      38 HC1          2.8460     1.1420     0.7970 HC            1 MOL        0.007330
      39 HC2          2.2320     0.9750    -0.8220 HC            1 MOL        0.007330
      40 HD1          1.7480    -1.0030     1.4330 HC            1 MOL        0.007154
      41 HD2          1.1320    -1.1770    -0.1840 HC            1 MOL        0.007154
      42 HE           0.4270     1.0910     1.7690 HA            1 MOL        0.131391
      43 HF          -1.6970     1.0870     0.9020 HA            1 MOL        0.131391
      44 HG1         -2.0740     0.1680    -1.3590 HC            1 MOL        0.007154
      45 HG2         -0.7240    -0.9100    -1.2110 HC            1 MOL        0.007154
      46 HH1         -2.6910    -2.2370    -1.0250 HC            1 MOL        0.007330
      47 HH2         -1.8820    -2.2220     0.5080 HC            1 MOL        0.007330
      48 HI1         -4.1680    -2.1500     0.9590 HC            1 MOL        0.022709
      49 HI2         -3.5340    -0.6100     1.4240 HC            1 MOL        0.022709
      50 H22         -4.3550    -1.1750    -2.2280 HC            1 MOL        0.079774
      51 H23         -6.0710    -0.9400    -2.0300 HC            1 MOL        0.079774
      52 H24         -5.2840    -2.3740    -1.3540 HC            1 MOL        0.079774
      53 H25         -3.8790     1.2280     0.1150 H             1 MOL        0.328470
      54 H26         -5.6040     3.7550    -1.6230 HC            1 MOL        0.116243
      55 H27         -3.9720     3.3170    -1.0900 HC            1 MOL        0.116243
      56 H28         -5.2630     3.5260     0.0880 HC            1 MOL        0.116243
      57 H29         -7.1700    -1.8600    -0.2770 H             1 MOL        0.358086
      58 H30         -7.9160    -1.3740     2.5010 H1            1 MOL        0.151044
      59 H31         -8.8230    -2.2690     1.2870 H1            1 MOL        0.151044
      60 H32         -8.8370    -0.5030     1.2860 H1            1 MOL        0.151044
      61 H            6.5710    -0.4290    -1.9710 H             1 MOL        0.328470
      62 H34          8.3980    -2.8120    -0.3850 HC            1 MOL        0.116243
      63 H35          8.1670    -1.9450    -1.9090 HC            1 MOL        0.116243
      64 H36          7.1830    -3.3530    -1.5250 HC            1 MOL        0.116243
@<TRIPOS>BOND
       1        1        2 1
       2        1       29 1
       3        1       30 1
       4        1       31 1
       5        2        3 1
       6        2       32 1
       7        3        4 2
       8        3        5 1
       9        5        6 1
      10        5        7 1
      11        5       25 1
      12        6       33 1
      13        6       34 1
      14        6       35 1
      15        7        8 1
      16        7       36 1
      17        7       37 1
      18        8        9 1
      19        8       38 1
      20        8       39 1
      21        9       10 1
      22        9       40 1
      23        9       41 1
      24       10       11 2
      25       10       42 1
      26       11       12 1
      27       11       43 1
      28       12       13 1
      29       12       44 1
      30       12       45 1
      31       13       14 1
      32       13       46 1
      33       13       47 1
      34       14       15 1
      35       14       48 1
      36       14       49 1
      37       15       16 1
      38       15       17 1
      39       15       21 1
      40       16       50 1
      41       16       51 1
      42       16       52 1
      43       17       18 1
      44       17       53 1
      45       18       19 1
      46       18       20 2
      47       19       54 1
      48       19       55 1
      49       19       56 1
      50       21       22 2
      51       21       23 1
      52       23       24 1
      53       23       57 1
      54       24       58 1
      55       24       59 1
      56       24       60 1
      57       25       26 1
      58       25       61 1
      59       26       27 1
      60       26       28 2
      61       27       62 1
      62       27       63 1
      63       27       64 1
@<TRIPOS>SUBSTRUCTURE
       1 MOL             1 RESIDUE    0 **** ROOT      0
