@<TRIPOS>MOLECULE
MOL
64 63 1 0 1
SMALL
USER_CHARGES
@<TRIPOS>ATOM
       1 C1           5.6660    -1.7280     2.8010 CT            1 MOL       -0.238986
       2 N1           5.3750    -0.7940     1.7350 N             1 MOL       -0.588302
       3 C            4.1610    -0.7860     1.1530 C             1 MOL        0.773050
       4 O            3.2500    -1.4650     1.5500 O             1 MOL       -0.596563
       5 CA           3.9880     0.1590    -0.0650 CX            1 MOL       -0.007022
       6 C1B          4.4800     1.5810     0.2360 CU            1 MOL       -0.346245
       7 C2B          2.5070     0.1610    -0.4980 CU            1 MOL        0.036689
       8 CC           1.4870     0.7940     0.4700 CU            1 MOL       -0.029605
       9 CD           1.0660     2.2250     0.0960 CU            1 MOL        0.148277
      10 CE           0.0570     2.7750     1.0700 CM            1 MOL       -0.262586
      11 CY          -1.1620     3.2180     0.8110 CM            1 MOL       -0.262586
      12 CG          -1.8390     3.3060    -0.5400 CU            1 MOL        0.148277
      13 CH          -2.5070     2.0040    -1.0200 CU            1 MOL       -0.029605
      14 CI          -3.5530     1.4770    -0.0350 CU            1 MOL        0.036689
      15 CJ          -4.3160     0.1990    -0.4460 CT            1 MOL       -0.007022
      16 C14         -5.0050     0.3900    -1.8050 CT            1 MOL       -0.346245
      17 N2          -5.3130     0.0000     0.6250 N             1 MOL       -0.605899
      18 C15         -6.3520    -0.8600     0.6630 C             1 MOL        0.857999
      19 C16         -7.1780    -0.8200     1.9320 CT            1 MOL       -0.531636
      20 O2          -6.6220    -1.6400    -0.2180 O             1 MOL       -0.652307
      21 C17         -3.3470    -1.0110    -0.4540 C             1 MOL        0.773050
      22 O3          -2.2110    -0.9090    -0.0680 O             1 MOL       -0.596563
      23 N3          -3.8450    -2.1700    -0.9220 N             1 MOL       -0.588302
      24 C18         -3.0570    -3.3820    -0.8620 CT            1 MOL       -0.238986
      25 N            4.7160    -0.4150    -1.2150 N             1 MOL       -0.605899
      26 C19          6.0470    -0.4730    -1.4270 C             1 MOL        0.857999
      27 C20          6.4700    -1.1410    -2.7190 CT            1 MOL       -0.531636
      28 O4           6.8770    -0.0540    -0.6560 O             1 MOL       -0.652307
      29 H1           6.6490    -1.5040     3.1930 H1            1 MOL        0.120651
      30 H2           4.9390    -1.6250     3.5940 H1            1 MOL        0.120651
      31 H3           5.6490    -2.7570     2.4580 H1            1 MOL        0.120651
      32 H4           6.1380    -0.3980     1.2310 H             1 MOL        0.411277
      33 HB1          5.5380     1.6150     0.4390 HC            1 MOL        0.106310
      34 HB2          4.2800     2.2190    -0.6180 HC            1 MOL        0.106310
      35 HB3          3.9550     1.9800     1.0950 HC            1 MOL        0.106310
      36 HB4          2.4610     0.6760    -1.4560 HC            1 MOL        0.019453
      37 HB5          2.2220    -0.8680    -0.6740 HC            1 MOL        0.019453
      38 HC1          0.5980     0.1740     0.4800 HC            1 MOL        0.030084
      39 HC2          1.8670     0.7740     1.4840 HC            1 MOL        0.030084
      40 HD1          1.9350     2.8790     0.0850 HC            1 MOL       -0.011914
      41 HD2          0.6650     2.2290    -0.9120 HC            1 MOL       -0.011914
      42 HE           0.3820     2.7840     2.0990 HA            1 MOL        0.133064
      43 HF          -1.7510     3.5550     1.6490 HA            1 MOL        0.133064
      44 HG1         -2.5890     4.0930    -0.4980 HC            1 MOL       -0.011914
      45 HG2         -1.1250     3.6160    -1.2960 HC            1 MOL       -0.011914
      46 HH1         -1.7510     1.2480    -1.1750 HC            1 MOL        0.030084
      47 HH2         -2.9680     2.2090    -1.9820 HC            1 MOL        0.030084
      48 HI1         -4.3050     2.2490     0.1260 HC            1 MOL        0.019453
      49 HI2         -3.0680     1.2870     0.9140 HC            1 MOL        0.019453
      50 H22         -5.6890    -0.4100    -2.0320 HC            1 MOL        0.106310
      51 H23         -5.5620     1.3210    -1.7980 HC            1 MOL        0.106310
      52 H24         -4.2660     0.4400    -2.5950 HC            1 MOL        0.106310
      53 H25         -5.1510     0.5310     1.4500 H             1 MOL        0.311226
      54 H26         -6.8670    -1.6380     2.5720 HC            1 MOL        0.143813
      55 H27         -8.2150    -0.9760     1.6700 HC            1 MOL        0.143813
      56 H28         -7.0780     0.1090     2.4810 HC            1 MOL        0.143813
      57 H29         -4.8340    -2.2520    -1.0120 H             1 MOL        0.411277
      58 H30         -2.1100    -3.2370    -1.3630 H1            1 MOL        0.120651
      59 H31         -2.8550    -3.6850     0.1600 H1            1 MOL        0.120651
      60 H32         -3.6030    -4.1700    -1.3620 H1            1 MOL        0.120651
      61 H            4.1420    -0.8660    -1.8900 H             1 MOL        0.311226
      62 H34          6.8180    -2.1430    -2.4900 HC            1 MOL        0.143813
      63 H35          5.6760    -1.2060    -3.4520 HC            1 MOL        0.143813
      64 H36          7.3010    -0.5870    -3.1340 HC            1 MOL        0.143813
@<TRIPOS>BOND
       1        1        2 1
       2        1       29 1
       3        1       30 1
       4        1       31 1
       5        2        3 1
       6        2       32 1
       7        3        4 2
       8        3        5 1
       9        5        6 1
      10        5        7 1
      11        5       25 1
      12        6       33 1
      13        6       34 1
      14        6       35 1
      15        7        8 1
      16        7       36 1
      17        7       37 1
      18        8        9 1
      19        8       38 1
      20        8       39 1
      21        9       10 1
      22        9       40 1
      23        9       41 1
      24       10       11 2
      25       10       42 1
      26       11       12 1
      27       11       43 1
      28       12       13 1
      29       12       44 1
      30       12       45 1
      31       13       14 1
      32       13       46 1
      33       13       47 1
      34       14       15 1
      35       14       48 1
      36       14       49 1
      37       15       16 1
      38       15       17 1
      39       15       21 1
      40       16       50 1
      41       16       51 1
      42       16       52 1
      43       17       18 1
      44       17       53 1
      45       18       19 1
      46       18       20 2
      47       19       54 1
      48       19       55 1
      49       19       56 1
      50       21       22 2
      51       21       23 1
      52       23       24 1
      53       23       57 1
      54       24       58 1
      55       24       59 1
      56       24       60 1
      57       25       26 1
      58       25       61 1
      59       26       27 1
      60       26       28 2
      61       27       62 1
      62       27       63 1
      63       27       64 1
@<TRIPOS>SUBSTRUCTURE
       1 MOL             1 RESIDUE    0 **** ROOT      0
