@<TRIPOS>MOLECULE
MOL
64 63 1 0 1
SMALL
USER_CHARGES
@<TRIPOS>ATOM
       1 C1           6.1310     3.1050    -1.5350 CT            1 MOL       -0.409416
       2 N1           5.4100     1.8470    -1.5340 N             1 MOL       -0.604722
       3 C            5.3600     1.0990    -0.4110 C             1 MOL        0.921618
       4 O            5.7720     1.5030     0.6440 O             1 MOL       -0.641241
       5 CA           4.6400    -0.2670    -0.4950 CX            1 MOL       -0.061785
       6 C1B          4.6220    -0.8840    -1.9040 CU            1 MOL       -0.209869
       7 C2B          3.1670    -0.0770    -0.0510 CU            1 MOL        0.023120
       8 CC           2.8960     0.5140     1.3370 CU            1 MOL       -0.049439
       9 CD           1.3910     0.6300     1.6330 CU            1 MOL        0.189871
      10 CE           0.7070    -0.7040     1.7960 CM            1 MOL       -0.275820
      11 CY          -0.3080    -1.2080     1.1130 CM            1 MOL       -0.275820
      12 CG          -1.0770    -0.5850    -0.0230 CU            1 MOL        0.189871
      13 CH          -2.5580    -0.3790     0.3310 CU            1 MOL       -0.049439
      14 CI          -3.3310     0.2240    -0.8480 CU            1 MOL        0.023120
      15 CJ          -4.8610     0.4290    -0.6980 CT            1 MOL       -0.061785
      16 C14         -5.3590     1.1260    -1.9750 CT            1 MOL       -0.209869
      17 N2          -5.1140     1.2830     0.4530 N             1 MOL       -0.646045
      18 C15         -6.3820     1.5100     0.9020 C             1 MOL        0.851295
      19 C16         -6.4710     2.0960     2.2930 CT            1 MOL       -0.388360
      20 O2          -7.3580     1.2650     0.2480 O             1 MOL       -0.619873
      21 C17         -5.5120    -0.9490    -0.4350 C             1 MOL        0.921618
      22 O3          -5.5160    -1.4150     0.6730 O             1 MOL       -0.641241
      23 N3          -5.9740    -1.6350    -1.5030 N             1 MOL       -0.604722
      24 C18         -6.6520    -2.9020    -1.3150 CT            1 MOL       -0.409416
      25 N            5.2940    -1.1860     0.4260 N             1 MOL       -0.646045
      26 C19          6.6360    -1.4170     0.3690 C             1 MOL        0.851295
      27 C20          7.2210    -2.0970     1.5860 CT            1 MOL       -0.388360
      28 O4           7.3100    -1.1040    -0.5740 O             1 MOL       -0.619873
      29 H1           5.9600     3.6000    -2.4820 H1            1 MOL        0.171179
      30 H2           5.7650     3.7350    -0.7380 H1            1 MOL        0.171179
      31 H3           7.1960     2.9600    -1.3950 H1            1 MOL        0.171179
      32 H4           5.3030     1.3890    -2.4080 H             1 MOL        0.372856
      33 HB1          4.0060    -0.2990    -2.5800 HC            1 MOL        0.071958
      34 HB2          5.6180    -0.9780    -2.3110 HC            1 MOL        0.071958
      35 HB3          4.1870    -1.8740    -1.8430 HC            1 MOL        0.071958
      36 HB4          2.6920     0.5610    -0.7910 HC            1 MOL        0.009788
      37 HB5          2.6870    -1.0480    -0.1290 HC            1 MOL        0.009788
      38 HC1          3.3480     1.4940     1.4190 HC            1 MOL        0.018230
      39 HC2          3.3530    -0.0910     2.1170 HC            1 MOL        0.018230
      40 HD1          1.2750     1.1860     2.5610 HC            1 MOL       -0.009902
      41 HD2          0.9160     1.2250     0.8610 HC            1 MOL       -0.009902
      42 HE           1.1160    -1.3140     2.5880 HA            1 MOL        0.143960
      43 HF          -0.6580    -2.1870     1.4010 HA            1 MOL        0.143960
      44 HG1         -0.6370     0.3600    -0.3220 HC            1 MOL       -0.009902
      45 HG2         -1.0120    -1.2430    -0.8880 HC            1 MOL       -0.009902
      46 HH1         -2.6070     0.2700     1.2020 HC            1 MOL        0.018230
      47 HH2         -2.9980    -1.3220     0.6290 HC            1 MOL        0.018230
      48 HI1         -2.9050     1.1940    -1.0930 HC            1 MOL        0.009788
      49 HI2         -3.1800    -0.4070    -1.7190 HC            1 MOL        0.009788
      50 H22         -5.0290     0.5960    -2.8640 HC            1 MOL        0.071958
      51 H23         -6.4350     1.2180    -1.9880 HC            1 MOL        0.071958
      52 H24         -4.9350     2.1210    -2.0140 HC            1 MOL        0.071958
      53 H25         -4.4210     1.2530     1.1650 H             1 MOL        0.329276
      54 H26         -7.4320     2.5740     2.4140 HC            1 MOL        0.102978
      55 H27         -6.3920     1.2890     3.0150 HC            1 MOL        0.102978
      56 H28         -5.6780     2.8090     2.4870 HC            1 MOL        0.102978
      57 H29         -6.1810    -1.1300    -2.3310 H             1 MOL        0.372856
      58 H30         -7.5930    -2.7810    -0.7900 H1            1 MOL        0.171179
      59 H31         -6.0250    -3.5690    -0.7420 H1            1 MOL        0.171179
      60 H32         -6.8380    -3.3410    -2.2860 H1            1 MOL        0.171179
      61 H            4.8940    -1.2410     1.3350 H             1 MOL        0.329276
      62 H34          7.4210    -1.3440     2.3420 HC            1 MOL        0.102978
      63 H35          6.5450    -2.8340     2.0060 HC            1 MOL        0.102978
      64 H36          8.1530    -2.5700     1.3120 HC            1 MOL        0.102978
@<TRIPOS>BOND
       1        1        2 1
       2        1       29 1
       3        1       30 1
       4        1       31 1
       5        2        3 1
       6        2       32 1
       7        3        4 2
       8        3        5 1
       9        5        6 1
      10        5        7 1
      11        5       25 1
      12        6       33 1
      13        6       34 1
      14        6       35 1
      15        7        8 1
      16        7       36 1
      17        7       37 1
      18        8        9 1
      19        8       38 1
      20        8       39 1
      21        9       10 1
      22        9       40 1
      23        9       41 1
      24       10       11 2
      25       10       42 1
      26       11       12 1
      27       11       43 1
      28       12       13 1
      29       12       44 1
      30       12       45 1
      31       13       14 1
      32       13       46 1
      33       13       47 1
      34       14       15 1
      35       14       48 1
      36       14       49 1
      37       15       16 1
      38       15       17 1
      39       15       21 1
      40       16       50 1
      41       16       51 1
      42       16       52 1
      43       17       18 1
      44       17       53 1
      45       18       19 1
      46       18       20 2
      47       19       54 1
      48       19       55 1
      49       19       56 1
      50       21       22 2
      51       21       23 1
      52       23       24 1
      53       23       57 1
      54       24       58 1
      55       24       59 1
      56       24       60 1
      57       25       26 1
      58       25       61 1
      59       26       27 1
      60       26       28 2
      61       27       62 1
      62       27       63 1
      63       27       64 1
@<TRIPOS>SUBSTRUCTURE
       1 MOL             1 RESIDUE    0 **** ROOT      0
