@<TRIPOS>MOLECULE
ETH
   41    40     4     0     1 
SMALL
USER_CHARGES
@<TRIPOS>ATOM
  1 CY      8.402131    6.563243   -4.531957 CT    1 ETH     0.0000 ****
  2 C2      9.503273    5.624852   -4.048627 CT    1 ETH     0.0000 ****
  3 H3      8.221413    7.249951   -3.827652 HT    1 ETH     0.0000 ****
  4 H5      8.705020    7.020989   -5.368068 HT    1 ETH     0.0000 ****
  5 H6      9.210872    5.173077   -3.205899 HT    1 ETH     0.0000 ****
  6 H7     10.335532    6.151126   -3.873372 HT    1 ETH     0.0000 ****
  7 H8      9.686250    4.936188   -4.750314 HT    1 ETH     0.0000 ****
  8 HH31    2.011850    1.017203   -0.000882 HC    2 ACE     0.1123 ****
  9 CH3     1.997166    2.107132    0.011418 CT    2 ACE    -0.3662 ****
 10 HH32    1.463365    2.456933    0.895027 HC    2 ACE     0.1123 ****
 11 HH33    1.489556    2.477190   -0.879498 HC    2 ACE     0.1123 ****
 12 C       3.423487    2.638124    0.039405 C     2 ACE     0.5972 ****
 13 O       4.376212    1.862731    0.002934 O     2 ACE    -0.5679 ****
 14 C       4.658432    6.101958   -0.031387 C     3 BS5     0.8097 ****
 15 O       3.521059    6.568003   -0.024888 O     3 BS5    -0.6156 ****
 16 CA      4.869133    4.593818   -0.066773 CX    3 BS5     0.0685 ****
 17 C1B     5.754607    4.181108    1.122307 CU    3 BS5    -0.3105 ****
 18 C2B     5.526380    4.200272   -1.402554 CU    3 BS5    -0.0393 ****
 19 CC      6.967897    4.724062   -1.522374 CU    3 BS5    -0.0024 ****
 20 CD      7.598348    4.297745   -2.860113 CU    3 BS5     0.0947 ****
 21 CE      6.767228    4.756783   -4.042657 CM    3 BS5    -0.2576 ****
 22 CY      7.130906    5.799910   -4.820081 CM    3 BS5    -0.2513 ****
 23 N       3.567628    3.965228    0.036341 N     3 BS5    -0.6917 ****
 24 HB1     5.252650    4.406462    2.071471 HC    3 BS5     0.0928 ****
 25 HB2     6.709195    4.721317    1.099620 HC    3 BS5     0.0928 ****
 26 HB3     5.964241    3.104652    1.089852 HC    3 BS5     0.0928 ****
 27 HB4     5.534282    3.107029   -1.491120 HC    3 BS5     0.0199 ****
 28 HB5     4.924186    4.588535   -2.233088 HC    3 BS5     0.0199 ****
 29 HC1     6.970283    5.818300   -1.446113 HC    3 BS5     0.0146 ****
 30 HC2     7.571797    4.335284   -0.693058 HC    3 BS5     0.0146 ****
 31 HD1     7.688298    3.204694   -2.880081 HC    3 BS5     0.0109 ****
 32 HD2     8.614608    4.703944   -2.931362 HC    3 BS5     0.0109 ****
 33 HE      5.859868    4.209125   -4.250098 HA    3 BS5     0.1320 ****
 34 HF      6.506645    6.089840   -5.651877 HA    3 BS5     0.1306 ****
 35 H       2.752197    4.561010    0.039172 H     3 BS5     0.3345 ****
 36 N       5.752365    6.867330   -0.020670 N     4 NME    -0.4157 ****
 37 H       6.668065    6.442197   -0.029148 H     4 NME     0.2719 ****
 38 CH3     5.672209    8.314832   -0.002191 CT    4 NME    -0.1490 ****
 39 HH31    4.626334    8.621833    0.002629 H1    4 NME     0.0976 ****
 40 HH32    6.165672    8.695742    0.892142 H1    4 NME     0.0976 ****
 41 HH33    6.164152    8.718324   -0.887408 H1    4 NME     0.0976 ****
@<TRIPOS>BOND
    1     2     5 1
    2     2     6 1
    3     2     7 1
    4     1     2 1
    5     1     3 1
    6     1     4 1
    7     1    22 1
    8     9     8 1
    9    10     9 1
   10    11     9 1
   11    12     9 1
   12    12    23 1
   13    13    12 1
   14    14    36 1
   15    15    14 1
   16    16    14 1
   17    17    16 1
   18    18    16 1
   19    19    18 1
   20    20    19 1
   21    21    20 1
   22    22    21 1
   23    23    16 1
   24    24    17 1
   25    25    17 1
   26    26    17 1
   27    27    18 1
   28    28    18 1
   29    29    19 1
   30    30    19 1
   31    31    20 1
   32    32    20 1
   33    33    21 1
   34    34    22 1
   35    35    23 1
   36    37    36 1
   37    38    36 1
   38    39    38 1
   39    40    38 1
   40    41    38 1
@<TRIPOS>SUBSTRUCTURE
      1  ETH              1 ****               0 ****  **** 
      2  ACE              8 ****               0 ****  **** 
      3  BS5             14 ****               0 ****  **** 
      4  NME             36 ****               0 ****  **** 
