@<TRIPOS>MOLECULE
MOL
38 37 1 0 1
SMALL
USER_CHARGES
@<TRIPOS>ATOM
       1 CH           6.1870     0.5760     1.1210 CT            1 MOL       -0.160188
       2 CG           5.9280     0.2990    -0.3580 CT            1 MOL        0.080631
       3 CY           4.6040    -0.3420    -0.6920 CM            1 MOL       -0.213881
       4 CE           3.6500    -0.6950     0.1510 CM            1 MOL       -0.192598
       5 CD           2.3450    -1.3310    -0.2470 CT            1 MOL       -0.099832
       6 CC           1.1300    -0.4800     0.1470 CT            1 MOL        0.163621
       7 CB          -0.1940    -1.1490    -0.2290 CT            1 MOL       -0.055747
       8 CA          -1.4240    -0.3450     0.1850 CT            1 MOL       -0.030607
       9 N           -1.4840     0.9220    -0.5340 N             1 MOL       -0.610118
      10 C9          -2.0580     2.0310    -0.0230 C             1 MOL        0.825235
      11 C10         -2.0400     3.2600    -0.9040 CT            1 MOL       -0.622289
      12 O1          -2.5670     2.0530     1.0700 O             1 MOL       -0.639938
      13 C           -2.7180    -1.1330    -0.0650 C             1 MOL        0.752362
      14 O           -2.7770    -2.0190    -0.8750 O             1 MOL       -0.605928
      15 N2          -3.7640    -0.7420     0.6870 N             1 MOL       -0.612094
      16 C12         -5.0850    -1.2900     0.4780 CT            1 MOL       -0.075204
      17 HH1          7.1600     1.0360     1.2530 HC            1 MOL        0.044509
      18 HH2          6.1720    -0.3400     1.7040 HC            1 MOL        0.044509
      19 HH3          5.4430     1.2490     1.5350 HC            1 MOL        0.044509
      20 HG1          6.0060     1.2320    -0.9160 HC            1 MOL        0.017925
      21 HG2          6.7220    -0.3350    -0.7480 HC            1 MOL        0.017925
      22 HF           4.4490    -0.5240    -1.7450 HA            1 MOL        0.121570
      23 HE           3.7790    -0.5250     1.2080 HA            1 MOL        0.132368
      24 HD1          2.2600    -2.3070     0.2290 HC            1 MOL        0.053406
      25 HD2          2.3340    -1.5080    -1.3190 HC            1 MOL        0.053406
      26 HC1          1.1510    -0.2980     1.2190 HC            1 MOL       -0.017942
      27 HC2          1.2120     0.4920    -0.3290 HC            1 MOL       -0.017942
      28 HB1         -0.2370    -1.3420    -1.2970 HC            1 MOL        0.021353
      29 HB2         -0.2600    -2.1220     0.2460 HC            1 MOL        0.021353
      30 HA          -1.3640    -0.0990     1.2360 H1            1 MOL        0.066073
      31 H           -1.1700     0.9320    -1.4770 H             1 MOL        0.360216
      32 H16         -1.7080     4.1020    -0.3120 HC            1 MOL        0.170015
      33 H17         -3.0530     3.4640    -1.2310 HC            1 MOL        0.170015
      34 H18         -1.4020     3.1570    -1.7740 HC            1 MOL        0.170015
      35 H19         -3.6690     0.1040     1.2070 H             1 MOL        0.378461
      36 H20         -5.0370    -2.3700     0.4640 H1            1 MOL        0.081609
      37 H21         -5.7240    -0.9760     1.2930 H1            1 MOL        0.081609
      38 H22         -5.5210    -0.9580    -0.4590 H1            1 MOL        0.081609
@<TRIPOS>BOND
       1        1        2 1
       2        1       17 1
       3        1       18 1
       4        1       19 1
       5        2        3 1
       6        2       20 1
       7        2       21 1
       8        3        4 2
       9        3       22 1
      10        4        5 1
      11        4       23 1
      12        5        6 1
      13        5       24 1
      14        5       25 1
      15        6        7 1
      16        6       26 1
      17        6       27 1
      18        7        8 1
      19        7       28 1
      20        7       29 1
      21        8        9 1
      22        8       13 1
      23        8       30 1
      24        9       10 1
      25        9       31 1
      26       10       11 1
      27       10       12 2
      28       11       32 1
      29       11       33 1
      30       11       34 1
      31       13       14 2
      32       13       15 1
      33       15       16 1
      34       15       35 1
      35       16       36 1
      36       16       37 1
      37       16       38 1
@<TRIPOS>SUBSTRUCTURE
       1 MOL             1 RESIDUE    0 **** ROOT      0
