@<TRIPOS>MOLECULE
MOL
38 37 1 0 1
SMALL
USER_CHARGES
@<TRIPOS>ATOM
       1 CH           5.3030     0.7050     0.6590 CT            1 MOL       -0.186738
       2 CG           4.5790     0.6900    -0.6850 CT            1 MOL        0.177143
       3 CY           3.3950    -0.2380    -0.7890 CM            1 MOL       -0.266630
       4 CE           2.9180    -1.0390     0.1460 CM            1 MOL       -0.105187
       5 CD           1.7270    -1.9470    -0.0180 CT            1 MOL       -0.210776
       6 CC           0.6090    -1.6850     1.0050 CT            1 MOL       -0.002828
       7 CB          -0.0170    -0.2870     0.9680 CT            1 MOL       -0.048402
       8 CA          -0.6960     0.0810    -0.3620 CT            1 MOL       -0.086685
       9 N           -1.7230    -0.8670    -0.7980 N             1 MOL       -0.679521
      10 C9          -2.7860    -1.2990    -0.0920 C             1 MOL        0.777436
      11 C10         -3.6770    -2.3030    -0.7930 CT            1 MOL       -0.455055
      12 O1          -3.0500    -0.9110     1.0200 O             1 MOL       -0.618705
      13 C           -1.1660     1.5420    -0.3540 C             1 MOL        0.689838
      14 O           -0.5460     2.3700    -0.9710 O             1 MOL       -0.606262
      15 N2          -2.2480     1.8350     0.3830 N             1 MOL       -0.470040
      16 C12         -2.7420     3.1900     0.4790 CT            1 MOL       -0.305195
      17 HH1          5.7000    -0.2740     0.9070 HC            1 MOL        0.041919
      18 HH2          6.1350     1.4020     0.6300 HC            1 MOL        0.041919
      19 HH3          4.6420     1.0130     1.4620 HC            1 MOL        0.041919
      20 HG1          5.2860     0.4310    -1.4710 HC            1 MOL        0.000187
      21 HG2          4.2410     1.6970    -0.9220 HC            1 MOL        0.000187
      22 HF           2.9020    -0.2220    -1.7510 HA            1 MOL        0.125590
      23 HE           3.3920    -1.0720     1.1150 HA            1 MOL        0.135153
      24 HD1          2.0490    -2.9800     0.1030 HC            1 MOL        0.078527
      25 HD2          1.3440    -1.8690    -1.0310 HC            1 MOL        0.078527
      26 HC1         -0.1660    -2.4340     0.8790 HC            1 MOL        0.039181
      27 HC2          1.0110    -1.8380     2.0040 HC            1 MOL        0.039181
      28 HB1         -0.7300    -0.2040     1.7760 HC            1 MOL        0.048464
      29 HB2          0.7510     0.4620     1.1370 HC            1 MOL        0.048464
      30 HA           0.0500     0.0650    -1.1410 H1            1 MOL        0.133083
      31 H           -1.6330    -1.2010    -1.7290 H             1 MOL        0.382457
      32 H16         -3.2060    -2.7810    -1.6420 HC            1 MOL        0.129559
      33 H17         -4.5720    -1.7910    -1.1320 HC            1 MOL        0.129559
      34 H18         -3.9770    -3.0540    -0.0750 HC            1 MOL        0.129559
      35 H19         -2.7000     1.1040     0.8870 H             1 MOL        0.369679
      36 H20         -2.0060     3.8450     0.9290 H1            1 MOL        0.134831
      37 H21         -3.6330     3.1880     1.0930 H1            1 MOL        0.134831
      38 H22         -2.9890     3.5830    -0.4990 H1            1 MOL        0.134831
@<TRIPOS>BOND
       1        1        2 1
       2        1       17 1
       3        1       18 1
       4        1       19 1
       5        2        3 1
       6        2       20 1
       7        2       21 1
       8        3        4 2
       9        3       22 1
      10        4        5 1
      11        4       23 1
      12        5        6 1
      13        5       24 1
      14        5       25 1
      15        6        7 1
      16        6       26 1
      17        6       27 1
      18        7        8 1
      19        7       28 1
      20        7       29 1
      21        8        9 1
      22        8       13 1
      23        8       30 1
      24        9       10 1
      25        9       31 1
      26       10       11 1
      27       10       12 2
      28       11       32 1
      29       11       33 1
      30       11       34 1
      31       13       14 2
      32       13       15 1
      33       15       16 1
      34       15       35 1
      35       16       36 1
      36       16       37 1
      37       16       38 1
@<TRIPOS>SUBSTRUCTURE
       1 MOL             1 RESIDUE    0 **** ROOT      0
