@<TRIPOS>MOLECULE
MOL
38 37 1 0 1
SMALL
USER_CHARGES
@<TRIPOS>ATOM
       1 CH           6.1080     0.7490    -0.4100 CT            1 MOL       -0.127236
       2 CG           5.6570    -0.5970     0.1670 CT            1 MOL        0.166863
       3 CY           4.2970    -1.0110    -0.3270 CM            1 MOL       -0.243372
       4 CE           3.2380    -1.2210     0.4330 CM            1 MOL       -0.265090
       5 CD           1.8750    -1.6210    -0.0640 CT            1 MOL        0.018811
       6 CC           0.7920    -0.5960     0.2980 CT            1 MOL        0.045698
       7 CB          -0.5920    -1.0210    -0.1920 CT            1 MOL       -0.096727
       8 CA          -1.7110    -0.0350     0.1890 CT            1 MOL       -0.026057
       9 N           -1.5310     1.2700    -0.4040 N             1 MOL       -0.650302
      10 C9          -1.1770     2.3590     0.3170 C             1 MOL        0.840483
      11 C10         -1.2410     3.6730    -0.4320 CT            1 MOL       -0.429678
      12 O1          -0.8480     2.3010     1.4720 O             1 MOL       -0.646152
      13 C           -3.0500    -0.5870    -0.2940 C             1 MOL        0.685666
      14 O           -3.4820    -0.3060    -1.3820 O             1 MOL       -0.581380
      15 N2          -3.6730    -1.4370     0.5420 N             1 MOL       -0.478685
      16 C12         -4.9450    -2.0430     0.2050 CT            1 MOL       -0.344174
      17 HH1          7.1010     1.0110    -0.0580 HC            1 MOL        0.028911
      18 HH2          6.1380     0.7200    -1.4950 HC            1 MOL        0.028911
      19 HH3          5.4260     1.5420    -0.1190 HC            1 MOL        0.028911
      20 HG1          6.3860    -1.3580    -0.1060 HC            1 MOL       -0.010989
      21 HG2          5.6520    -0.5470     1.2520 HC            1 MOL       -0.010989
      22 HF           4.2050    -1.1330    -1.3970 HA            1 MOL        0.156403
      23 HE           3.3290    -1.0950     1.5030 HA            1 MOL        0.153278
      24 HD1          1.6070    -2.5860     0.3640 HC            1 MOL        0.020022
      25 HD2          1.9060    -1.7580    -1.1420 HC            1 MOL        0.020022
      26 HC1          1.0550     0.3650    -0.1310 HC            1 MOL        0.031711
      27 HC2          0.7700    -0.4540     1.3750 HC            1 MOL        0.031711
      28 HB1         -0.8390    -1.9970     0.2200 HC            1 MOL        0.040626
      29 HB2         -0.5870    -1.1310    -1.2730 HC            1 MOL        0.040626
      30 HA          -1.7220     0.0970     1.2630 H1            1 MOL        0.096712
      31 H           -1.9300     1.3870    -1.3090 H             1 MOL        0.337652
      32 H16         -0.5170     4.3530    -0.0060 HC            1 MOL        0.117771
      33 H17         -1.0550     3.5560    -1.4930 HC            1 MOL        0.117771
      34 H18         -2.2300     4.1030    -0.3030 HC            1 MOL        0.117771
      35 H19         -3.3310    -1.5340     1.4700 H             1 MOL        0.325860
      36 H20         -5.7540    -1.3230     0.2390 H1            1 MOL        0.152880
      37 H21         -5.1490    -2.8370     0.9110 H1            1 MOL        0.152880
      38 H22         -4.9000    -2.4600    -0.7910 H1            1 MOL        0.152880
@<TRIPOS>BOND
       1        1        2 1
       2        1       17 1
       3        1       18 1
       4        1       19 1
       5        2        3 1
       6        2       20 1
       7        2       21 1
       8        3        4 2
       9        3       22 1
      10        4        5 1
      11        4       23 1
      12        5        6 1
      13        5       24 1
      14        5       25 1
      15        6        7 1
      16        6       26 1
      17        6       27 1
      18        7        8 1
      19        7       28 1
      20        7       29 1
      21        8        9 1
      22        8       13 1
      23        8       30 1
      24        9       10 1
      25        9       31 1
      26       10       11 1
      27       10       12 2
      28       11       32 1
      29       11       33 1
      30       11       34 1
      31       13       14 2
      32       13       15 1
      33       15       16 1
      34       15       35 1
      35       16       36 1
      36       16       37 1
      37       16       38 1
@<TRIPOS>SUBSTRUCTURE
       1 MOL             1 RESIDUE    0 **** ROOT      0
