@<TRIPOS>MOLECULE
MOL
38 37 1 0 1
SMALL
USER_CHARGES
@<TRIPOS>ATOM
       1 CH           6.2440    -0.3000     0.0950 CT            1 MOL       -0.154439
       2 CG           5.3770     0.5130    -0.8640 CT            1 MOL        0.159266
       3 CY           3.9060     0.1810    -0.8730 CM            1 MOL       -0.179630
       4 CE           3.2870    -0.7320    -0.1470 CM            1 MOL       -0.327840
       5 CD           1.8080    -1.0110    -0.1960 CT            1 MOL        0.166719
       6 CC           1.1250    -0.7580     1.1560 CT            1 MOL       -0.059018
       7 CB          -0.3440    -1.1910     1.2220 CT            1 MOL       -0.192195
       8 CA          -1.2850    -0.4350     0.2850 CT            1 MOL        0.048493
       9 N           -2.6160    -1.0230     0.3460 N             1 MOL       -0.684977
      10 C9          -3.4810    -0.9800    -0.6890 C             1 MOL        0.884228
      11 C10         -4.8360    -1.6090    -0.4530 CT            1 MOL       -0.568587
      12 O1          -3.2060    -0.4620    -1.7430 O             1 MOL       -0.662501
      13 C           -1.3870     1.0540     0.6430 C             1 MOL        0.759121
      14 O           -1.2200     1.4510     1.7660 O             1 MOL       -0.606429
      15 N2          -1.6940     1.8590    -0.3930 N             1 MOL       -0.602241
      16 C12         -1.9810     3.2620    -0.1870 CT            1 MOL       -0.155194
      17 HH1          7.2800     0.0150     0.0250 HC            1 MOL        0.037240
      18 HH2          6.2030    -1.3600    -0.1350 HC            1 MOL        0.037240
      19 HH3          5.9260    -0.1670     1.1240 HC            1 MOL        0.037240
      20 HG1          5.7590     0.3960    -1.8780 HC            1 MOL       -0.006778
      21 HG2          5.4860     1.5720    -0.6360 HC            1 MOL       -0.006778
      22 HF           3.3190     0.7730    -1.5600 HA            1 MOL        0.114657
      23 HE           3.8480    -1.3360     0.5490 HA            1 MOL        0.157833
      24 HD1          1.3560    -0.4010    -0.9720 HC            1 MOL       -0.005760
      25 HD2          1.6480    -2.0500    -0.4840 HC            1 MOL       -0.005760
      26 HC1          1.6620    -1.3080     1.9250 HC            1 MOL        0.045099
      27 HC2          1.2120     0.2900     1.4190 HC            1 MOL        0.045099
      28 HB1         -0.4210    -2.2480     0.9800 HC            1 MOL        0.074722
      29 HB2         -0.6970    -1.0610     2.2400 HC            1 MOL        0.074722
      30 HA          -0.9580    -0.5340    -0.7390 H1            1 MOL        0.076115
      31 H           -2.9300    -1.3660     1.2260 H             1 MOL        0.351027
      32 H16         -4.8630    -2.2540     0.4170 HC            1 MOL        0.154525
      33 H17         -5.5670    -0.8180    -0.3260 HC            1 MOL        0.154525
      34 H18         -5.1100    -2.1760    -1.3320 HC            1 MOL        0.154525
      35 H19         -2.0230     1.4230    -1.2270 H             1 MOL        0.375735
      36 H20         -1.1970     3.7130     0.4030 H1            1 MOL        0.103333
      37 H21         -2.0230     3.7520    -1.1510 H1            1 MOL        0.103333
      38 H22         -2.9250     3.4150     0.3270 H1            1 MOL        0.103333
@<TRIPOS>BOND
       1        1        2 1
       2        1       17 1
       3        1       18 1
       4        1       19 1
       5        2        3 1
       6        2       20 1
       7        2       21 1
       8        3        4 2
       9        3       22 1
      10        4        5 1
      11        4       23 1
      12        5        6 1
      13        5       24 1
      14        5       25 1
      15        6        7 1
      16        6       26 1
      17        6       27 1
      18        7        8 1
      19        7       28 1
      20        7       29 1
      21        8        9 1
      22        8       13 1
      23        8       30 1
      24        9       10 1
      25        9       31 1
      26       10       11 1
      27       10       12 2
      28       11       32 1
      29       11       33 1
      30       11       34 1
      31       13       14 2
      32       13       15 1
      33       15       16 1
      34       15       35 1
      35       16       36 1
      36       16       37 1
      37       16       38 1
@<TRIPOS>SUBSTRUCTURE
       1 MOL             1 RESIDUE    0 **** ROOT      0
