@<TRIPOS>MOLECULE
MOL
38 37 1 0 1
SMALL
USER_CHARGES
@<TRIPOS>ATOM
       1 CH           6.2210     1.3040    -0.1530 CT            1 MOL       -0.140174
       2 CG           5.9120    -0.1810    -0.3730 CT            1 MOL        0.223591
       3 CY           4.6210    -0.6040     0.2730 CM            1 MOL       -0.261025
       4 CE           3.5750    -1.1000    -0.3610 CM            1 MOL       -0.281343
       5 CD           2.2790    -1.5100     0.2860 CT            1 MOL        0.034851
       6 CC           1.0820    -0.6950    -0.2210 CT            1 MOL        0.057794
       7 CB          -0.2380    -1.1590     0.3960 CT            1 MOL       -0.118802
       8 CA          -1.4500    -0.3800    -0.1100 CT            1 MOL       -0.009323
       9 N           -2.6790    -1.0100     0.3570 N             1 MOL       -0.561766
      10 C9          -3.8430    -0.9360    -0.3210 C             1 MOL        0.842574
      11 C10         -5.0300    -1.6260     0.3130 CT            1 MOL       -0.622193
      12 O1          -3.9470    -0.3470    -1.3690 O             1 MOL       -0.646534
      13 C           -1.4350     1.0830     0.3570 C             1 MOL        0.677926
      14 O           -0.8710     1.4240     1.3630 O             1 MOL       -0.570060
      15 N2          -2.1140     1.9320    -0.4370 N             1 MOL       -0.619082
      16 C12         -2.3200     3.3120    -0.0560 CT            1 MOL       -0.032838
      17 HH1          6.2820     1.5380     0.9060 HC            1 MOL        0.030690
      18 HH2          5.4460     1.9290    -0.5860 HC            1 MOL        0.030690
      19 HH3          7.1690     1.5760    -0.6070 HC            1 MOL        0.030690
      20 HG1          5.8750    -0.3930    -1.4380 HC            1 MOL       -0.028776
      21 HG2          6.7290    -0.7740     0.0340 HC            1 MOL       -0.028776
      22 HF           4.5680    -0.4730     1.3450 HA            1 MOL        0.164388
      23 HE           3.6250    -1.2270    -1.4330 HA            1 MOL        0.158500
      24 HD1          2.3580    -1.4030     1.3640 HC            1 MOL        0.022558
      25 HD2          2.0970    -2.5660     0.0890 HC            1 MOL        0.022558
      26 HC1          1.2480     0.3520     0.0070 HC            1 MOL        0.018121
      27 HC2          1.0240    -0.7800    -1.3050 HC            1 MOL        0.018121
      28 HB1         -0.1860    -1.0670     1.4760 HC            1 MOL        0.045097
      29 HB2         -0.3990    -2.2080     0.1610 HC            1 MOL        0.045097
      30 HA          -1.4810    -0.4080    -1.1900 H1            1 MOL        0.071774
      31 H           -2.6710    -1.4210     1.2620 H             1 MOL        0.319134
      32 H16         -5.5740    -2.1540    -0.4580 HC            1 MOL        0.169371
      33 H17         -4.7530    -2.3170     1.1000 HC            1 MOL        0.169371
      34 H18         -5.6880    -0.8700     0.7270 HC            1 MOL        0.169371
      35 H19         -2.7080     1.5330    -1.1320 H             1 MOL        0.378908
      36 H20         -3.0050     3.4060     0.7810 H1            1 MOL        0.073172
      37 H21         -2.7250     3.8480    -0.9030 H1            1 MOL        0.073172
      38 H22         -1.3770     3.7580     0.2260 H1            1 MOL        0.073172
@<TRIPOS>BOND
       1        1        2 1
       2        1       17 1
       3        1       18 1
       4        1       19 1
       5        2        3 1
       6        2       20 1
       7        2       21 1
       8        3        4 2
       9        3       22 1
      10        4        5 1
      11        4       23 1
      12        5        6 1
      13        5       24 1
      14        5       25 1
      15        6        7 1
      16        6       26 1
      17        6       27 1
      18        7        8 1
      19        7       28 1
      20        7       29 1
      21        8        9 1
      22        8       13 1
      23        8       30 1
      24        9       10 1
      25        9       31 1
      26       10       11 1
      27       10       12 2
      28       11       32 1
      29       11       33 1
      30       11       34 1
      31       13       14 2
      32       13       15 1
      33       15       16 1
      34       15       35 1
      35       16       36 1
      36       16       37 1
      37       16       38 1
@<TRIPOS>SUBSTRUCTURE
       1 MOL             1 RESIDUE    0 **** ROOT      0
