@<TRIPOS>MOLECULE
MOL
38 37 1 0 1
SMALL
USER_CHARGES
@<TRIPOS>ATOM
       1 CH           6.6500    -0.3740     0.3460 CT            1 MOL       -0.170135
       2 CG           5.6990     0.1190    -0.7500 CT            1 MOL        0.266418
       3 CY           4.3280    -0.4910    -0.6440 CM            1 MOL       -0.252411
       4 CE           3.2040     0.1790    -0.4650 CM            1 MOL       -0.337017
       5 CD           1.8340    -0.4340    -0.3450 CT            1 MOL        0.141305
       6 CC           1.1790    -0.1240     1.0090 CT            1 MOL       -0.037616
       7 CB          -0.1860    -0.7890     1.2270 CT            1 MOL       -0.240483
       8 CA          -1.2940    -0.3260     0.2820 CT            1 MOL        0.036141
       9 N           -2.4960    -1.1180     0.5110 N             1 MOL       -0.659390
      10 C9          -3.4090    -1.3560    -0.4530 C             1 MOL        0.876721
      11 C10         -4.6140    -2.1720    -0.0430 CT            1 MOL       -0.564051
      12 O1          -3.2890    -0.9370    -1.5770 O             1 MOL       -0.658615
      13 C           -1.6380     1.1580     0.4700 C             1 MOL        0.759186
      14 O           -1.4720     1.7210     1.5200 O             1 MOL       -0.602655
      15 N2          -2.1490     1.7570    -0.6220 N             1 MOL       -0.616174
      16 C12         -2.6680     3.1060    -0.5600 CT            1 MOL       -0.144714
      17 HH1          6.2770    -0.1080     1.3300 HC            1 MOL        0.035531
      18 HH2          7.6370     0.0620     0.2300 HC            1 MOL        0.035531
      19 HH3          6.7580    -1.4540     0.3130 HC            1 MOL        0.035531
      20 HG1          5.6210     1.2020    -0.7080 HC            1 MOL       -0.035885
      21 HG2          6.1260    -0.1240    -1.7220 HC            1 MOL       -0.035885
      22 HF           4.2880    -1.5690    -0.7170 HA            1 MOL        0.144119
      23 HE           3.2440     1.2560    -0.3890 HA            1 MOL        0.176212
      24 HD1          1.9020    -1.5100    -0.4840 HC            1 MOL        0.007456
      25 HD2          1.2110    -0.0540    -1.1530 HC            1 MOL        0.007456
      26 HC1          1.0840     0.9480     1.1390 HC            1 MOL        0.045914
      27 HC2          1.8440    -0.4680     1.7960 HC            1 MOL        0.045914
      28 HB1         -0.5030    -0.5960     2.2460 HC            1 MOL        0.089974
      29 HB2         -0.0870    -1.8650     1.1130 HC            1 MOL        0.089974
      30 HA          -1.0120    -0.4980    -0.7460 H1            1 MOL        0.074523
      31 H           -2.6930    -1.3960     1.4460 H             1 MOL        0.343359
      32 H16         -4.8300    -2.8860    -0.8260 HC            1 MOL        0.153199
      33 H17         -4.4790    -2.6940     0.8960 HC            1 MOL        0.153199
      34 H18         -5.4680    -1.5080     0.0450 HC            1 MOL        0.153199
      35 H19         -2.4430     1.1670    -1.3700 H             1 MOL        0.379906
      36 H20         -1.9400     3.7570    -0.0970 H1            1 MOL        0.101421
      37 H21         -3.5890     3.1640     0.0120 H1            1 MOL        0.101421
      38 H22         -2.8590     3.4510    -1.5670 H1            1 MOL        0.101421
@<TRIPOS>BOND
       1        1        2 1
       2        1       17 1
       3        1       18 1
       4        1       19 1
       5        2        3 1
       6        2       20 1
       7        2       21 1
       8        3        4 2
       9        3       22 1
      10        4        5 1
      11        4       23 1
      12        5        6 1
      13        5       24 1
      14        5       25 1
      15        6        7 1
      16        6       26 1
      17        6       27 1
      18        7        8 1
      19        7       28 1
      20        7       29 1
      21        8        9 1
      22        8       13 1
      23        8       30 1
      24        9       10 1
      25        9       31 1
      26       10       11 1
      27       10       12 2
      28       11       32 1
      29       11       33 1
      30       11       34 1
      31       13       14 2
      32       13       15 1
      33       15       16 1
      34       15       35 1
      35       16       36 1
      36       16       37 1
      37       16       38 1
@<TRIPOS>SUBSTRUCTURE
       1 MOL             1 RESIDUE    0 **** ROOT      0
