@<TRIPOS>MOLECULE
MOL
38 37 1 0 1
SMALL
USER_CHARGES
@<TRIPOS>ATOM
       1 CH          -6.6020     0.0820     0.1150 CT            1 MOL       -0.144603
       2 CG          -5.2810     0.0860     0.8910 CT            1 MOL        0.178544
       3 CY          -4.0890     0.3120    -0.0000 CM            1 MOL       -0.264512
       4 CE          -3.0860    -0.5310    -0.1640 CM            1 MOL       -0.250228
       5 CD          -1.8950    -0.3030    -1.0560 CT            1 MOL        0.007131
       6 CC          -0.5710    -0.2910    -0.2800 CT            1 MOL       -0.019682
       7 CB           0.6340    -0.0900    -1.2010 CT            1 MOL       -0.075174
       8 CA           1.9930    -0.0010    -0.4800 CT            1 MOL       -0.093634
       9 N            2.0790     1.1270     0.4150 N             1 MOL       -0.537359
      10 C9           2.3870     2.3660    -0.0210 C             1 MOL        0.846360
      11 C10          2.5650     3.4160     1.0550 CT            1 MOL       -0.478888
      12 O1           2.5310     2.6260    -1.1880 O             1 MOL       -0.639477
      13 C            2.2850    -1.2580     0.3360 C             1 MOL        0.661641
      14 O            2.2380    -1.2600     1.5390 O             1 MOL       -0.567329
      15 N2           2.5640    -2.3630    -0.3800 N             1 MOL       -0.453321
      16 C12          2.8800    -3.6240     0.2580 CT            1 MOL       -0.395433
      17 HH1         -6.6180    -0.7180    -0.6190 HC            1 MOL        0.032793
      18 HH2         -7.4460    -0.0560     0.7840 HC            1 MOL        0.032793
      19 HH3         -6.7490     1.0200    -0.4140 HC            1 MOL        0.032793
      20 HG1         -5.3180     0.8690     1.6450 HC            1 MOL       -0.011395
      21 HG2         -5.1660    -0.8530     1.4240 HC            1 MOL       -0.011395
      22 HF          -4.0820     1.2450    -0.5460 HA            1 MOL        0.163709
      23 HE          -3.0920    -1.4640     0.3820 HA            1 MOL        0.155185
      24 HD1         -2.0130     0.6350    -1.5910 HC            1 MOL        0.035067
      25 HD2         -1.8560    -1.0890    -1.8090 HC            1 MOL        0.035067
      26 HC1         -0.6010     0.5010     0.4600 HC            1 MOL        0.037777
      27 HC2         -0.4700    -1.2240     0.2700 HC            1 MOL        0.037777
      28 HB1          0.6760    -0.8990    -1.9280 HC            1 MOL        0.043968
      29 HB2          0.5200     0.8280    -1.7660 HC            1 MOL        0.043968
      30 HA           2.7610     0.1110    -1.2370 H1            1 MOL        0.093992
      31 H            2.0490     0.9200     1.3880 H             1 MOL        0.296813
      32 H16          2.1190     4.3410     0.7150 HC            1 MOL        0.126637
      33 H17          3.6260     3.5890     1.1960 HC            1 MOL        0.126637
      34 H18          2.1300     3.1290     2.0040 HC            1 MOL        0.126637
      35 H19          2.6960    -2.2790    -1.3610 H             1 MOL        0.330924
      36 H20          3.8530    -3.5980     0.7350 H1            1 MOL        0.165406
      37 H21          2.8760    -4.4020    -0.4930 H1            1 MOL        0.165406
      38 H22          2.1370    -3.8540     1.0080 H1            1 MOL        0.165406
@<TRIPOS>BOND
       1        1        2 1
       2        1       17 1
       3        1       18 1
       4        1       19 1
       5        2        3 1
       6        2       20 1
       7        2       21 1
       8        3        4 2
       9        3       22 1
      10        4        5 1
      11        4       23 1
      12        5        6 1
      13        5       24 1
      14        5       25 1
      15        6        7 1
      16        6       26 1
      17        6       27 1
      18        7        8 1
      19        7       28 1
      20        7       29 1
      21        8        9 1
      22        8       13 1
      23        8       30 1
      24        9       10 1
      25        9       31 1
      26       10       11 1
      27       10       12 2
      28       11       32 1
      29       11       33 1
      30       11       34 1
      31       13       14 2
      32       13       15 1
      33       15       16 1
      34       15       35 1
      35       16       36 1
      36       16       37 1
      37       16       38 1
@<TRIPOS>SUBSTRUCTURE
       1 MOL             1 RESIDUE    0 **** ROOT      0
