@<TRIPOS>MOLECULE
MOL
38 37 1 0 1
SMALL
USER_CHARGES
@<TRIPOS>ATOM
       1 CH           5.8630     0.4530    -0.2860 CT            1 MOL       -0.168691
       2 CG           5.2440    -0.9480    -0.3170 CT            1 MOL        0.154303
       3 CY           3.7500    -0.9160    -0.5000 CM            1 MOL       -0.254631
       4 CE           2.8640    -1.4050     0.3470 CM            1 MOL       -0.306908
       5 CD           1.3700    -1.3660     0.1680 CT            1 MOL        0.053130
       6 CC           0.6670    -0.6130     1.3080 CT            1 MOL        0.016419
       7 CB          -0.8650    -0.6580     1.2500 CT            1 MOL       -0.189585
       8 CA          -1.5260     0.0820     0.0700 CT            1 MOL       -0.007663
       9 N           -2.9580    -0.1190     0.0680 N             1 MOL       -0.733691
      10 C9          -3.5400    -1.1850    -0.5190 C             1 MOL        0.892456
      11 C10         -5.0420    -1.2800    -0.3660 CT            1 MOL       -0.504353
      12 O1          -2.9110    -2.0210    -1.1160 O             1 MOL       -0.647343
      13 C           -1.3000     1.5870     0.1730 C             1 MOL        0.688065
      14 O           -1.9710     2.2590     0.9150 O             1 MOL       -0.583092
      15 N2          -0.3120     2.1010    -0.5790 N             1 MOL       -0.457269
      16 C12         -0.0000     3.5150    -0.5630 CT            1 MOL       -0.306582
      17 HH1          6.9420     0.3990    -0.1780 HC            1 MOL        0.040885
      18 HH2          5.6500     0.9960    -1.2030 HC            1 MOL        0.040885
      19 HH3          5.4690     1.0330     0.5430 HC            1 MOL        0.040885
      20 HG1          5.4870    -1.4770     0.6000 HC            1 MOL        0.001241
      21 HG2          5.6930    -1.5140    -1.1310 HC            1 MOL        0.001241
      22 HF           3.4010    -0.4460    -1.4100 HA            1 MOL        0.152794
      23 HE           3.2140    -1.8760     1.2550 HA            1 MOL        0.176846
      24 HD1          0.9820    -2.3820     0.1290 HC            1 MOL        0.036276
      25 HD2          1.1380    -0.9160    -0.7930 HC            1 MOL        0.036276
      26 HC1          1.0200     0.4130     1.3360 HC            1 MOL        0.018524
      27 HC2          0.9720    -1.0580     2.2520 HC            1 MOL        0.018524
      28 HB1         -1.2720    -0.2410     2.1660 HC            1 MOL        0.094365
      29 HB2         -1.1920    -1.6910     1.1940 HC            1 MOL        0.094365
      30 HA          -1.1460    -0.3010    -0.8660 H1            1 MOL        0.084451
      31 H           -3.4970     0.5340     0.5910 H             1 MOL        0.368239
      32 H16         -5.2660    -2.0090     0.4050 HC            1 MOL        0.134817
      33 H17         -5.4640    -1.6380    -1.2950 HC            1 MOL        0.134817
      34 H18         -5.5030    -0.3370    -0.0970 HC            1 MOL        0.134817
      35 H19          0.1500     1.5160    -1.2340 H             1 MOL        0.323851
      36 H20          0.1190     3.8580     0.4550 H1            1 MOL        0.140445
      37 H21          0.9260     3.6710    -1.0990 H1            1 MOL        0.140445
      38 H22         -0.7830     4.1000    -1.0320 H1            1 MOL        0.140445
@<TRIPOS>BOND
       1        1        2 1
       2        1       17 1
       3        1       18 1
       4        1       19 1
       5        2        3 1
       6        2       20 1
       7        2       21 1
       8        3        4 2
       9        3       22 1
      10        4        5 1
      11        4       23 1
      12        5        6 1
      13        5       24 1
      14        5       25 1
      15        6        7 1
      16        6       26 1
      17        6       27 1
      18        7        8 1
      19        7       28 1
      20        7       29 1
      21        8        9 1
      22        8       13 1
      23        8       30 1
      24        9       10 1
      25        9       31 1
      26       10       11 1
      27       10       12 2
      28       11       32 1
      29       11       33 1
      30       11       34 1
      31       13       14 2
      32       13       15 1
      33       15       16 1
      34       15       35 1
      35       16       36 1
      36       16       37 1
      37       16       38 1
@<TRIPOS>SUBSTRUCTURE
       1 MOL             1 RESIDUE    0 **** ROOT      0
