@<TRIPOS>MOLECULE
MOL
38 37 1 0 1
SMALL
USER_CHARGES
@<TRIPOS>ATOM
       1 CH          -6.5340    -0.0050    -0.3680 CT            1 MOL       -0.091100
       2 CG          -5.1480    -0.0850    -1.0160 CT            1 MOL        0.084160
       3 CY          -4.0430     0.2810    -0.0620 CM            1 MOL       -0.261074
       4 CE          -3.0560    -0.5150     0.3080 CM            1 MOL       -0.252489
       5 CD          -1.9550    -0.1460     1.2650 CT            1 MOL        0.092809
       6 CC          -0.5650    -0.2130     0.6160 CT            1 MOL        0.053940
       7 CB           0.5480     0.1170     1.6120 CT            1 MOL        0.008459
       8 CA           2.0050     0.0440     1.1110 CT            1 MOL       -0.026843
       9 N            2.4070    -1.3020     0.7590 N             1 MOL       -0.683626
      10 C9           2.4900    -1.9610    -0.4360 C             1 MOL        0.799539
      11 C10          1.8890    -1.3680    -1.6900 CT            1 MOL       -0.291625
      12 O1           3.0290    -3.0320    -0.4780 O             1 MOL       -0.643384
      13 C            2.4800     1.0890     0.0870 C             1 MOL        0.642871
      14 O            3.4830     0.9160    -0.5490 O             1 MOL       -0.550465
      15 N2           1.7800     2.2380     0.0140 N             1 MOL       -0.516901
      16 C12          2.2140     3.3200    -0.8470 CT            1 MOL       -0.524208
      17 HH1         -6.6130    -0.6980     0.4640 HC            1 MOL        0.026188
      18 HH2         -7.3120    -0.2480    -1.0850 HC            1 MOL        0.026188
      19 HH3         -6.7330     0.9930     0.0110 HC            1 MOL        0.026188
      20 HG1         -4.9800    -1.0860    -1.4020 HC            1 MOL        0.014821
      21 HG2         -5.1190     0.5880    -1.8720 HC            1 MOL        0.014821
      22 HF          -4.0920     1.2800     0.3500 HA            1 MOL        0.154854
      23 HE          -3.0080    -1.5140    -0.1000 HA            1 MOL        0.159275
      24 HD1         -1.9760    -0.8240     2.1170 HC            1 MOL        0.007616
      25 HD2         -2.1320     0.8520     1.6580 HC            1 MOL        0.007616
      26 HC1         -0.4070    -1.2100     0.2190 HC            1 MOL       -0.013297
      27 HC2         -0.5420     0.4680    -0.2310 HC            1 MOL       -0.013297
      28 HB1          0.4840    -0.5820     2.4400 HC            1 MOL       -0.011108
      29 HB2          0.3720     1.0970     2.0530 HC            1 MOL       -0.011108
      30 HA           2.6140     0.2950     1.9760 H1            1 MOL        0.124790
      31 H            2.9220    -1.7900     1.4590 H             1 MOL        0.369520
      32 H16          1.3960    -2.1700    -2.2230 HC            1 MOL        0.092495
      33 H17          1.1890    -0.5640    -1.5230 HC            1 MOL        0.092495
      34 H18          2.6990    -0.9940    -2.3010 HC            1 MOL        0.092495
      35 H19          0.9310     2.3400     0.5140 H             1 MOL        0.386120
      36 H20          3.2180     3.6290    -0.5930 H1            1 MOL        0.204422
      37 H21          1.5410     4.1560    -0.7140 H1            1 MOL        0.204422
      38 H22          2.2030     3.0200    -1.8870 H1            1 MOL        0.204422
@<TRIPOS>BOND
       1        1        2 1
       2        1       17 1
       3        1       18 1
       4        1       19 1
       5        2        3 1
       6        2       20 1
       7        2       21 1
       8        3        4 2
       9        3       22 1
      10        4        5 1
      11        4       23 1
      12        5        6 1
      13        5       24 1
      14        5       25 1
      15        6        7 1
      16        6       26 1
      17        6       27 1
      18        7        8 1
      19        7       28 1
      20        7       29 1
      21        8        9 1
      22        8       13 1
      23        8       30 1
      24        9       10 1
      25        9       31 1
      26       10       11 1
      27       10       12 2
      28       11       32 1
      29       11       33 1
      30       11       34 1
      31       13       14 2
      32       13       15 1
      33       15       16 1
      34       15       35 1
      35       16       36 1
      36       16       37 1
      37       16       38 1
@<TRIPOS>SUBSTRUCTURE
       1 MOL             1 RESIDUE    0 **** ROOT      0
