@<TRIPOS>MOLECULE
MOL
38 37 1 0 1
SMALL
USER_CHARGES
@<TRIPOS>ATOM
       1 CH           5.6340     0.6420     1.1240 CT            1 MOL       -0.194862
       2 CG           5.3890    -0.6710     0.3850 CT            1 MOL        0.168901
       3 CY           4.1030    -0.7630    -0.3990 CM            1 MOL       -0.223346
       4 CE           3.1710     0.1650    -0.5180 CM            1 MOL       -0.211913
       5 CD           1.9020     0.0090    -1.3130 CT            1 MOL       -0.084465
       6 CC           0.6430     0.1370    -0.4460 CT            1 MOL        0.047544
       7 CB          -0.6400     0.0100    -1.2700 CT            1 MOL       -0.103673
       8 CA          -1.9450     0.0620    -0.4510 CT            1 MOL       -0.101808
       9 N           -2.0580    -1.0250     0.4910 N             1 MOL       -0.526393
      10 C9          -2.5000    -2.2460     0.1260 C             1 MOL        0.841944
      11 C10         -2.6850    -3.2410     1.2510 CT            1 MOL       -0.484619
      12 O1          -2.7520    -2.5300    -1.0170 O             1 MOL       -0.638618
      13 C           -2.0680     1.3650     0.3360 C             1 MOL        0.652046
      14 O           -1.9320     1.4010     1.5320 O             1 MOL       -0.564552
      15 N2          -2.3050     2.4660    -0.4010 N             1 MOL       -0.451156
      16 C12         -2.4660     3.7700     0.2100 CT            1 MOL       -0.402848
      17 HH1          5.6710     1.4820     0.4370 HC            1 MOL        0.046241
      18 HH2          4.8530     0.8380     1.8520 HC            1 MOL        0.046241
      19 HH3          6.5800     0.6050     1.6540 HC            1 MOL        0.046241
      20 HG1          5.4130    -1.4930     1.0980 HC            1 MOL       -0.004885
      21 HG2          6.2180    -0.8590    -0.2960 HC            1 MOL       -0.004885
      22 HF           3.9580    -1.7040    -0.9090 HA            1 MOL        0.127404
      23 HE           3.2900     1.1130    -0.0180 HA            1 MOL        0.142718
      24 HD1          1.8720     0.7680    -2.0940 HC            1 MOL        0.052937
      25 HD2          1.9000    -0.9540    -1.8180 HC            1 MOL        0.052937
      26 HC1          0.6620    -0.6300     0.3210 HC            1 MOL        0.028541
      27 HC2          0.6610     1.0930     0.0730 HC            1 MOL        0.028541
      28 HB1         -0.6460    -0.9320    -1.8050 HC            1 MOL        0.050545
      29 HB2         -0.6680     0.7950    -2.0230 HC            1 MOL        0.050545
      30 HA          -2.7730    -0.0070    -1.1460 H1            1 MOL        0.100214
      31 H           -1.9380    -0.7900     1.4510 H             1 MOL        0.294764
      32 H16         -2.1590    -2.9620     2.1560 HC            1 MOL        0.128339
      33 H17         -2.3430    -4.2120     0.9170 HC            1 MOL        0.128339
      34 H18         -3.7440    -3.3200     1.4730 HC            1 MOL        0.128339
      35 H19         -2.5160     2.3630    -1.3660 H             1 MOL        0.331434
      36 H20         -3.3990     3.8440     0.7570 H1            1 MOL        0.167755
      37 H21         -1.6520     3.9590     0.8950 H1            1 MOL        0.167755
      38 H22         -2.4530     4.5210    -0.5690 H1            1 MOL        0.167755
@<TRIPOS>BOND
       1        1        2 1
       2        1       17 1
       3        1       18 1
       4        1       19 1
       5        2        3 1
       6        2       20 1
       7        2       21 1
       8        3        4 2
       9        3       22 1
      10        4        5 1
      11        4       23 1
      12        5        6 1
      13        5       24 1
      14        5       25 1
      15        6        7 1
      16        6       26 1
      17        6       27 1
      18        7        8 1
      19        7       28 1
      20        7       29 1
      21        8        9 1
      22        8       13 1
      23        8       30 1
      24        9       10 1
      25        9       31 1
      26       10       11 1
      27       10       12 2
      28       11       32 1
      29       11       33 1
      30       11       34 1
      31       13       14 2
      32       13       15 1
      33       15       16 1
      34       15       35 1
      35       16       36 1
      36       16       37 1
      37       16       38 1
@<TRIPOS>SUBSTRUCTURE
       1 MOL             1 RESIDUE    0 **** ROOT      0
