@<TRIPOS>MOLECULE
MOL
38 37 1 0 1
SMALL
USER_CHARGES
@<TRIPOS>ATOM
       1 CH           6.6200     0.0280    -0.9400 CT            1 MOL       -0.191167
       2 CG           5.6160     0.4640     0.1320 CT            1 MOL        0.195445
       3 CY           4.1950     0.1310    -0.2380 CM            1 MOL       -0.241143
       4 CE           3.3910    -0.6590     0.4490 CM            1 MOL       -0.305049
       5 CD           1.9700    -0.9920     0.0800 CT            1 MOL        0.137044
       6 CC           0.9700    -0.5440     1.1570 CT            1 MOL       -0.127654
       7 CB          -0.4830    -0.9520     0.8790 CT            1 MOL        0.028998
       8 CA          -1.1660    -0.1720    -0.2590 CT            1 MOL        0.071100
       9 N           -2.2230    -0.9010    -0.9500 N             1 MOL       -0.882094
      10 C9          -3.3570    -1.4720    -0.4360 C             1 MOL        0.917657
      11 C10         -3.8010    -1.1030     0.9620 CT            1 MOL       -0.503860
      12 O1          -3.9890    -2.2480    -1.0970 O             1 MOL       -0.653743
      13 C           -1.6260     1.2290     0.1790 C             1 MOL        0.663372
      14 O           -1.2530     1.7240     1.2090 O             1 MOL       -0.569135
      15 N2          -2.4160     1.8760    -0.6980 N             1 MOL       -0.547202
      16 C12         -2.9260     3.2020    -0.4180 CT            1 MOL       -0.128965
      17 HH1          7.6320     0.3040    -0.6610 HC            1 MOL        0.044082
      18 HH2          6.4020     0.4970    -1.8960 HC            1 MOL        0.044082
      19 HH3          6.5900    -1.0470    -1.0840 HC            1 MOL        0.044082
      20 HG1          5.8650    -0.0030     1.0800 HC            1 MOL       -0.011500
      21 HG2          5.7040     1.5380     0.2810 HC            1 MOL       -0.011500
      22 HF           3.8310     0.5830    -1.1500 HA            1 MOL        0.148524
      23 HE           3.7550    -1.1110     1.3610 HA            1 MOL        0.170105
      24 HD1          1.7380    -0.5350    -0.8790 HC            1 MOL        0.003620
      25 HD2          1.8780    -2.0690    -0.0590 HC            1 MOL        0.003620
      26 HC1          1.2640    -0.9920     2.1030 HC            1 MOL        0.043017
      27 HC2          1.0310     0.5280     1.2970 HC            1 MOL        0.043017
      28 HB1         -1.0580    -0.8320     1.7880 HC            1 MOL        0.025610
      29 HB2         -0.5120    -2.0060     0.6150 HC            1 MOL        0.025610
      30 HA          -0.4300     0.0180    -1.0320 H1            1 MOL        0.089204
      31 H           -1.9670    -1.3300    -1.8140 H             1 MOL        0.403818
      32 H16         -4.8810    -1.1240     0.9800 HC            1 MOL        0.144495
      33 H17         -3.4410    -1.8630     1.6480 HC            1 MOL        0.144495
      34 H18         -3.4500    -0.1410     1.3070 HC            1 MOL        0.144495
      35 H19         -2.7990     1.3590    -1.4540 H             1 MOL        0.346288
      36 H20         -3.6700     3.1900     0.3710 H1            1 MOL        0.097077
      37 H21         -3.3760     3.5960    -1.3200 H1            1 MOL        0.097077
      38 H22         -2.1180     3.8520    -0.1140 H1            1 MOL        0.097077
@<TRIPOS>BOND
       1        1        2 1
       2        1       17 1
       3        1       18 1
       4        1       19 1
       5        2        3 1
       6        2       20 1
       7        2       21 1
       8        3        4 2
       9        3       22 1
      10        4        5 1
      11        4       23 1
      12        5        6 1
      13        5       24 1
      14        5       25 1
      15        6        7 1
      16        6       26 1
      17        6       27 1
      18        7        8 1
      19        7       28 1
      20        7       29 1
      21        8        9 1
      22        8       13 1
      23        8       30 1
      24        9       10 1
      25        9       31 1
      26       10       11 1
      27       10       12 2
      28       11       32 1
      29       11       33 1
      30       11       34 1
      31       13       14 2
      32       13       15 1
      33       15       16 1
      34       15       35 1
      35       16       36 1
      36       16       37 1
      37       16       38 1
@<TRIPOS>SUBSTRUCTURE
       1 MOL             1 RESIDUE    0 **** ROOT      0
