@<TRIPOS>MOLECULE
MOL
38 37 1 0 1
SMALL
USER_CHARGES
@<TRIPOS>ATOM
       1 CH          -7.1390    -0.2740     0.1710 CT            1 MOL       -0.140748
       2 CG          -5.8580     0.2690     0.8120 CT            1 MOL        0.143850
       3 CY          -4.6240    -0.4500     0.3380 CM            1 MOL       -0.280683
       4 CE          -3.6100     0.1080    -0.2970 CM            1 MOL       -0.263700
       5 CD          -2.3770    -0.6130    -0.7730 CT            1 MOL        0.103057
       6 CC          -1.0950    -0.0800    -0.1200 CT            1 MOL       -0.027272
       7 CB           0.1570    -0.7870    -0.6410 CT            1 MOL       -0.018324
       8 CA           1.4460    -0.3070     0.0220 CT            1 MOL        0.038763
       9 N            2.5590    -1.1590    -0.3760 N             1 MOL       -0.600957
      10 C9           3.6390    -1.3670     0.4050 C             1 MOL        0.855318
      11 C10          4.7140    -2.2640    -0.1670 CT            1 MOL       -0.607974
      12 O1           3.7580    -0.8630     1.4950 O             1 MOL       -0.651232
      13 C            1.7790     1.1480    -0.3430 C             1 MOL        0.671698
      14 O            1.3920     1.6520    -1.3650 O             1 MOL       -0.568368
      15 N2           2.5440     1.7900     0.5590 N             1 MOL       -0.620954
      16 C12          3.0650     3.1130     0.2920 CT            1 MOL       -0.067732
      17 HH1         -7.2640    -1.3320     0.3810 HC            1 MOL        0.034479
      18 HH2         -7.1140    -0.1510    -0.9070 HC            1 MOL        0.034479
      19 HH3         -8.0140     0.2450     0.5500 HC            1 MOL        0.034479
      20 HG1         -5.7650     1.3310     0.6030 HC            1 MOL        0.000436
      21 HG2         -5.9370     0.1710     1.8940 HC            1 MOL        0.000436
      22 HF          -4.5950    -1.5120     0.5380 HA            1 MOL        0.165533
      23 HE          -3.6380     1.1690    -0.4990 HA            1 MOL        0.166931
      24 HD1         -2.2910    -0.5020    -1.8530 HC            1 MOL        0.009533
      25 HD2         -2.4770    -1.6770    -0.5740 HC            1 MOL        0.009533
      26 HC1         -1.1680    -0.2090     0.9580 HC            1 MOL        0.020143
      27 HC2         -1.0140     0.9850    -0.3090 HC            1 MOL        0.020143
      28 HB1          0.0730    -1.8560    -0.4590 HC            1 MOL        0.015188
      29 HB2          0.2360    -0.6410    -1.7140 HC            1 MOL        0.015188
      30 HA           1.3610    -0.3920     1.0960 H1            1 MOL        0.057596
      31 H            2.5550    -1.5190    -1.3030 H             1 MOL        0.324709
      32 H16          5.0540    -2.9340     0.6120 HC            1 MOL        0.165304
      33 H17          5.5550    -1.6490    -0.4660 HC            1 MOL        0.165304
      34 H18          4.3810    -2.8420    -1.0200 HC            1 MOL        0.165304
      35 H19          2.9720     1.2410     1.2720 H             1 MOL        0.384053
      36 H20          3.4970     3.5050     1.2030 H1            1 MOL        0.082161
      37 H21          3.8260     3.1020    -0.4820 H1            1 MOL        0.082161
      38 H22          2.2650     3.7650    -0.0280 H1            1 MOL        0.082161
@<TRIPOS>BOND
       1        1        2 1
       2        1       17 1
       3        1       18 1
       4        1       19 1
       5        2        3 1
       6        2       20 1
       7        2       21 1
       8        3        4 2
       9        3       22 1
      10        4        5 1
      11        4       23 1
      12        5        6 1
      13        5       24 1
      14        5       25 1
      15        6        7 1
      16        6       26 1
      17        6       27 1
      18        7        8 1
      19        7       28 1
      20        7       29 1
      21        8        9 1
      22        8       13 1
      23        8       30 1
      24        9       10 1
      25        9       31 1
      26       10       11 1
      27       10       12 2
      28       11       32 1
      29       11       33 1
      30       11       34 1
      31       13       14 2
      32       13       15 1
      33       15       16 1
      34       15       35 1
      35       16       36 1
      36       16       37 1
      37       16       38 1
@<TRIPOS>SUBSTRUCTURE
       1 MOL             1 RESIDUE    0 **** ROOT      0
