@<TRIPOS>MOLECULE
MOL
38 37 1 0 1
SMALL
USER_CHARGES
@<TRIPOS>ATOM
       1 CH           5.2280     0.7860    -0.2210 c3            1 MOL       -0.127439
       2 CG           4.2290     0.9880     0.9160 c3            1 MOL        0.168050
       3 CY           3.0810     0.0100     0.9730 c2            1 MOL       -0.324121
       4 CE           2.8510    -1.0040     0.1590 c2            1 MOL       -0.175463
       5 CD           1.6910    -1.9580     0.2730 c3            1 MOL        0.136175
       6 CC           0.8250    -2.0340    -0.9960 c3            1 MOL       -0.134424
       7 CB           0.1690    -0.7180    -1.4320 c3            1 MOL       -0.122591
       8 CA          -0.7970    -0.1120    -0.4160 c3            1 MOL        0.007431
       9 N           -1.2680     1.1810    -0.8960 ns            1 MOL       -0.634883
      10 C9          -1.6390     2.1770    -0.0660 c             1 MOL        0.870617
      11 C10         -2.1190     3.4510    -0.7250 c3            1 MOL       -0.582742
      12 O1          -1.6050     2.0680     1.1350 o             1 MOL       -0.661125
      13 C           -2.0130    -1.0120    -0.1530 c             1 MOL        0.733257
      14 O           -2.4270    -1.7810    -0.9810 o             1 MOL       -0.594746
      15 N2          -2.5750    -0.8530     1.0600 ns            1 MOL       -0.633441
      16 C12         -3.8180    -1.5100     1.3990 c3            1 MOL       -0.073730
      17 HH1          4.7470     0.8690    -1.1910 hc            1 MOL        0.028625
      18 HH2          6.0090     1.5380    -0.1730 hc            1 MOL        0.028625
      19 HH3          5.7020    -0.1880    -0.1640 hc            1 MOL        0.028625
      20 HG1          4.7570     0.9490     1.8680 hc            1 MOL       -0.005410
      21 HG2          3.8170     1.9940     0.8580 hc            1 MOL       -0.005410
      22 HF           2.3900     0.1820     1.7860 ha            1 MOL        0.175008
      23 HE           3.5280    -1.1980    -0.6590 ha            1 MOL        0.126012
      24 HD1          2.0740    -2.9580     0.4670 hc            1 MOL       -0.010306
      25 HD2          1.0850    -1.6980     1.1350 hc            1 MOL       -0.010306
      26 HC1          1.4460    -2.3790    -1.8190 hc            1 MOL        0.060411
      27 HC2          0.0580    -2.7880    -0.8600 hc            1 MOL        0.060411
      28 HB1          0.9350     0.0240    -1.6340 hc            1 MOL        0.060726
      29 HB2         -0.3700    -0.8960    -2.3570 hc            1 MOL        0.060726
      30 HA          -0.2880     0.0800     0.5160 h1            1 MOL        0.108078
      31 H           -1.4050     1.2880    -1.8750 hn            1 MOL        0.335291
      32 H16         -3.1960     3.5130    -0.6120 hc            1 MOL        0.158614
      33 H17         -1.8740     3.5080    -1.7790 hc            1 MOL        0.158614
      34 H18         -1.6820     4.2930    -0.2060 hc            1 MOL        0.158614
      35 H19         -2.3010    -0.0520     1.5870 hn            1 MOL        0.379167
      36 H20         -3.7490    -2.5630     1.1690 h1            1 MOL        0.084354
      37 H21         -4.6610    -1.0970     0.8530 h1            1 MOL        0.084354
      38 H22         -3.9950    -1.3920     2.4600 h1            1 MOL        0.084354
@<TRIPOS>BOND
       1        1        2 1
       2        1       17 1
       3        1       18 1
       4        1       19 1
       5        2        3 1
       6        2       20 1
       7        2       21 1
       8        3        4 2
       9        3       22 1
      10        4        5 1
      11        4       23 1
      12        5        6 1
      13        5       24 1
      14        5       25 1
      15        6        7 1
      16        6       26 1
      17        6       27 1
      18        7        8 1
      19        7       28 1
      20        7       29 1
      21        8        9 1
      22        8       13 1
      23        8       30 1
      24        9       10 1
      25        9       31 1
      26       10       11 1
      27       10       12 2
      28       11       32 1
      29       11       33 1
      30       11       34 1
      31       13       14 2
      32       13       15 1
      33       15       16 1
      34       15       35 1
      35       16       36 1
      36       16       37 1
      37       16       38 1
@<TRIPOS>SUBSTRUCTURE
       1 MOL             1 RESIDUE    0 **** ROOT      0
