@<TRIPOS>MOLECULE
MOL
38 37 1 0 1
SMALL
USER_CHARGES
@<TRIPOS>ATOM
       1 CH          -6.8790    -0.4540    -0.2590 c3            1 MOL       -0.190485
       2 CG          -5.6930    -0.0420     0.6190 c3            1 MOL        0.232691
       3 CY          -4.3780    -0.5470     0.0890 c2            1 MOL       -0.253065
       4 CE          -3.3600     0.2090    -0.2780 c2            1 MOL       -0.289724
       5 CD          -2.0460    -0.2990    -0.8070 c3            1 MOL        0.003613
       6 CC          -0.8590     0.1040     0.0780 c3            1 MOL        0.076593
       7 CB           0.4740    -0.3960    -0.4860 c3            1 MOL       -0.015292
       8 CA           1.6840    -0.0630     0.4040 c3            1 MOL       -0.043097
       9 N            2.9100    -0.6700    -0.1110 ns            1 MOL       -0.694894
      10 C9           3.1680    -1.9950     0.0640 c             1 MOL        0.868177
      11 C10          4.5780    -2.4260    -0.2780 c3            1 MOL       -0.390846
      12 O1           2.3450    -2.7670     0.4690 o             1 MOL       -0.612993
      13 C            1.8820     1.4450     0.5340 c             1 MOL        0.799878
      14 O            1.5650     2.0380     1.5250 o             1 MOL       -0.633785
      15 N2           2.4440     2.0630    -0.5390 ns            1 MOL       -0.476596
      16 C12          2.5370     3.5080    -0.5930 c3            1 MOL       -0.474340
      17 HH1         -6.7810    -0.0450    -1.2600 hc            1 MOL        0.041249
      18 HH2         -7.8160    -0.1000     0.1600 hc            1 MOL        0.041249
      19 HH3         -6.9440    -1.5340    -0.3480 hc            1 MOL        0.041249
      20 HG1         -5.8480    -0.4300     1.6240 hc            1 MOL       -0.023903
      21 HG2         -5.6600     1.0400     0.7060 hc            1 MOL       -0.023903
      22 HF          -4.2890    -1.6210     0.0040 ha            1 MOL        0.163465
      23 HE          -3.4490     1.2830    -0.1920 ha            1 MOL        0.164099
      24 HD1         -1.8870     0.0930    -1.8110 hc            1 MOL        0.034151
      25 HD2         -2.0820    -1.3810    -0.8990 hc            1 MOL        0.034151
      26 HC1         -0.8440     1.1850     0.1900 hc            1 MOL        0.000149
      27 HC2         -1.0050    -0.3020     1.0750 hc            1 MOL        0.000149
      28 HB1          0.4420    -1.4730    -0.5900 hc            1 MOL        0.007555
      29 HB2          0.6350     0.0120    -1.4820 hc            1 MOL        0.007555
      30 HA           1.4960    -0.4260     1.4050 h1            1 MOL        0.120092
      31 H            3.6960    -0.0720    -0.2330 hn            1 MOL        0.278225
      32 H16          5.2160    -2.2770     0.5880 hc            1 MOL        0.105562
      33 H17          4.5730    -3.4790    -0.5210 hc            1 MOL        0.105562
      34 H18          4.9910    -1.8620    -1.1070 hc            1 MOL        0.105562
      35 H19          2.4530     1.5690    -1.4030 hn            1 MOL        0.336501
      36 H20          3.1710     3.7850    -1.4250 h1            1 MOL        0.185150
      37 H21          2.9770     3.8750     0.3220 h1            1 MOL        0.185150
      38 H22          1.5650     3.9750    -0.7160 h1            1 MOL        0.185150
@<TRIPOS>BOND
       1        1        2 1
       2        1       17 1
       3        1       18 1
       4        1       19 1
       5        2        3 1
       6        2       20 1
       7        2       21 1
       8        3        4 2
       9        3       22 1
      10        4        5 1
      11        4       23 1
      12        5        6 1
      13        5       24 1
      14        5       25 1
      15        6        7 1
      16        6       26 1
      17        6       27 1
      18        7        8 1
      19        7       28 1
      20        7       29 1
      21        8        9 1
      22        8       13 1
      23        8       30 1
      24        9       10 1
      25        9       31 1
      26       10       11 1
      27       10       12 2
      28       11       32 1
      29       11       33 1
      30       11       34 1
      31       13       14 2
      32       13       15 1
      33       15       16 1
      34       15       35 1
      35       16       36 1
      36       16       37 1
      37       16       38 1
@<TRIPOS>SUBSTRUCTURE
       1 MOL             1 RESIDUE    0 **** ROOT      0
