@<TRIPOS>MOLECULE
MOL
38 37 1 0 1
SMALL
USER_CHARGES
@<TRIPOS>ATOM
       1 CH           6.2620     0.4690    -0.5860 CT            1 MOL       -0.138979
       2 CG           5.0720     0.7030     0.3500 CT            1 MOL        0.096645
       3 CY           4.0700    -0.4190     0.3000 CM            1 MOL       -0.261442
       4 CE           2.8050    -0.2990    -0.0590 CM            1 MOL       -0.150709
       5 CD           1.8130    -1.4330    -0.1050 CT            1 MOL       -0.129244
       6 CC           0.6990    -1.3430     0.9540 CT            1 MOL       -0.070633
       7 CB          -0.1700    -0.0810     0.9210 CT            1 MOL       -0.032133
       8 CA          -0.9140     0.1600    -0.4040 CT            1 MOL       -0.088748
       9 N           -1.7780    -0.9450    -0.8170 N             1 MOL       -0.712292
      10 C9          -2.7530    -1.5350    -0.0970 C             1 MOL        0.778120
      11 C10         -3.4640    -2.6890    -0.7700 CT            1 MOL       -0.421994
      12 O1          -3.0790    -1.1700     1.0070 O             1 MOL       -0.618766
      13 C           -1.5950     1.5350    -0.3910 C             1 MOL        0.718472
      14 O           -1.0590     2.4610    -0.9440 O             1 MOL       -0.618022
      15 N2          -2.7520     1.6470     0.2770 N             1 MOL       -0.496974
      16 C12         -3.4210     2.9230     0.4020 CT            1 MOL       -0.256556
      17 HH1          5.9350     0.4030    -1.6190 HC            1 MOL        0.035370
      18 HH2          6.9820     1.2790    -0.5110 HC            1 MOL        0.035370
      19 HH3          6.7780    -0.4560    -0.3420 HC            1 MOL        0.035370
      20 HG1          4.5850     1.6400     0.0970 HC            1 MOL        0.015192
      21 HG2          5.4410     0.8090     1.3690 HC            1 MOL        0.015192
      22 HF           4.4450    -1.3940     0.5770 HA            1 MOL        0.162827
      23 HE           2.4370     0.6760    -0.3410 HA            1 MOL        0.136590
      24 HD1          2.3380    -2.3720     0.0370 HC            1 MOL        0.060995
      25 HD2          1.3710    -1.4830    -1.0980 HC            1 MOL        0.060995
      26 HC1          0.0640    -2.2200     0.8640 HC            1 MOL        0.057785
      27 HC2          1.1580    -1.4000     1.9370 HC            1 MOL        0.057785
      28 HB1         -0.8840    -0.1320     1.7320 HC            1 MOL        0.047533
      29 HB2          0.4450     0.7960     1.0970 HC            1 MOL        0.047533
      30 HA          -0.1850     0.2540    -1.1950 H1            1 MOL        0.130717
      31 H           -1.6310    -1.2850    -1.7390 H             1 MOL        0.393992
      32 H16         -3.6250    -3.4670    -0.0370 HC            1 MOL        0.121476
      33 H17         -2.9240    -3.0950    -1.6170 HC            1 MOL        0.121476
      34 H18         -4.4360    -2.3450    -1.1080 HC            1 MOL        0.121476
      35 H19         -3.0930     0.8590     0.7830 H             1 MOL        0.375504
      36 H20         -4.3700     2.7660     0.8960 H1            1 MOL        0.123359
      37 H21         -3.5990     3.3560    -0.5740 H1            1 MOL        0.123359
      38 H22         -2.8330     3.6260     0.9810 H1            1 MOL        0.123359
@<TRIPOS>BOND
       1        1        2 1
       2        1       17 1
       3        1       18 1
       4        1       19 1
       5        2        3 1
       6        2       20 1
       7        2       21 1
       8        3        4 2
       9        3       22 1
      10        4        5 1
      11        4       23 1
      12        5        6 1
      13        5       24 1
      14        5       25 1
      15        6        7 1
      16        6       26 1
      17        6       27 1
      18        7        8 1
      19        7       28 1
      20        7       29 1
      21        8        9 1
      22        8       13 1
      23        8       30 1
      24        9       10 1
      25        9       31 1
      26       10       11 1
      27       10       12 2
      28       11       32 1
      29       11       33 1
      30       11       34 1
      31       13       14 2
      32       13       15 1
      33       15       16 1
      34       15       35 1
      35       16       36 1
      36       16       37 1
      37       16       38 1
@<TRIPOS>SUBSTRUCTURE
       1 MOL             1 RESIDUE    0 **** ROOT      0
