@<TRIPOS>MOLECULE
MOL
38 37 1 0 1
SMALL
USER_CHARGES
@<TRIPOS>ATOM
       1 CH          -6.5470    -0.4690    -0.2340 CT            1 MOL       -0.134584
       2 CG          -5.2600     0.2010    -0.7260 CT            1 MOL        0.121723
       3 CY          -4.1080     0.0050     0.2220 CM            1 MOL       -0.266085
       4 CE          -2.9740    -0.6050    -0.0680 CM            1 MOL       -0.238362
       5 CD          -1.8240    -0.8020     0.8840 CT            1 MOL        0.031148
       6 CC          -0.5350    -0.1300     0.3940 CT            1 MOL       -0.046953
       7 CB           0.6170    -0.3350     1.3870 CT            1 MOL       -0.235430
       8 CA           2.0300     0.1980     0.9980 CT            1 MOL        0.234043
       9 N            3.0230    -0.8210     0.7150 N             1 MOL       -0.767055
      10 C9           3.1490    -1.7360    -0.3020 C             1 MOL        0.829340
      11 C10          1.9380    -2.1510    -1.0990 CT            1 MOL       -0.430385
      12 O1           4.2230    -2.2340    -0.4990 O             1 MOL       -0.632579
      13 C            1.9770     1.2760    -0.0920 C             1 MOL        0.572979
      14 O            2.1700     1.0340    -1.2510 O             1 MOL       -0.533778
      15 N2           1.6750     2.5160     0.3460 N             1 MOL       -0.454954
      16 C12          1.5770     3.6380    -0.5650 CT            1 MOL       -0.261894
      17 HH1         -6.4130    -1.5420    -0.1400 HC            1 MOL        0.034397
      18 HH2         -7.3670    -0.2900    -0.9230 HC            1 MOL        0.034397
      19 HH3         -6.8420    -0.0860     0.7380 HC            1 MOL        0.034397
      20 HG1         -5.4440     1.2670    -0.8510 HC            1 MOL        0.007111
      21 HG2         -4.9970    -0.1860    -1.7060 HC            1 MOL        0.007111
      22 HF          -4.2510     0.3960     1.2200 HA            1 MOL        0.160388
      23 HE          -2.8310    -0.9980    -1.0650 HA            1 MOL        0.155873
      24 HD1         -1.6410    -1.8680     1.0090 HC            1 MOL        0.034374
      25 HD2         -2.0920    -0.4170     1.8640 HC            1 MOL        0.034374
      26 HC1         -0.7230     0.9310     0.2640 HC            1 MOL        0.046063
      27 HC2         -0.2770    -0.5150    -0.5850 HC            1 MOL        0.046063
      28 HB1          0.7280    -1.3870     1.6200 HC            1 MOL        0.071757
      29 HB2          0.3320     0.1440     2.3190 HC            1 MOL        0.071757
      30 HA           2.4200     0.6760     1.8890 H1            1 MOL        0.037399
      31 H            3.9260    -0.6180     1.0860 H             1 MOL        0.358773
      32 H16          1.1320    -2.4790    -0.4530 HC            1 MOL        0.130188
      33 H17          2.2360    -2.9700    -1.7380 HC            1 MOL        0.130188
      34 H18          1.5910    -1.3260    -1.7050 HC            1 MOL        0.130188
      35 H19          1.6090     2.6870     1.3220 H             1 MOL        0.300395
      36 H20          1.1980     4.4930    -0.0210 H1            1 MOL        0.129212
      37 H21          2.5420     3.8880    -0.9900 H1            1 MOL        0.129212
      38 H22          0.8980     3.4050    -1.3730 H1            1 MOL        0.129212
@<TRIPOS>BOND
       1        1        2 1
       2        1       17 1
       3        1       18 1
       4        1       19 1
       5        2        3 1
       6        2       20 1
       7        2       21 1
       8        3        4 2
       9        3       22 1
      10        4        5 1
      11        4       23 1
      12        5        6 1
      13        5       24 1
      14        5       25 1
      15        6        7 1
      16        6       26 1
      17        6       27 1
      18        7        8 1
      19        7       28 1
      20        7       29 1
      21        8        9 1
      22        8       13 1
      23        8       30 1
      24        9       10 1
      25        9       31 1
      26       10       11 1
      27       10       12 2
      28       11       32 1
      29       11       33 1
      30       11       34 1
      31       13       14 2
      32       13       15 1
      33       15       16 1
      34       15       35 1
      35       16       36 1
      36       16       37 1
      37       16       38 1
@<TRIPOS>SUBSTRUCTURE
       1 MOL             1 RESIDUE    0 **** ROOT      0
