@<TRIPOS>MOLECULE
MOL
38 37 1 0 1
SMALL
USER_CHARGES
@<TRIPOS>ATOM
       1 CH          -7.1390    -0.2740     0.1710 CT            1 MOL       -0.140423
       2 CG          -5.8580     0.2690     0.8130 CT            1 MOL        0.143255
       3 CY          -4.6230    -0.4500     0.3380 CM            1 MOL       -0.280385
       4 CE          -3.6100     0.1080    -0.2980 CM            1 MOL       -0.264003
       5 CD          -2.3770    -0.6130    -0.7730 CT            1 MOL        0.103616
       6 CC          -1.0950    -0.0800    -0.1200 CT            1 MOL       -0.027499
       7 CB           0.1570    -0.7870    -0.6410 CT            1 MOL       -0.018494
       8 CA           1.4460    -0.3060     0.0220 CT            1 MOL        0.039123
       9 N            2.5590    -1.1590    -0.3760 N             1 MOL       -0.601037
      10 C9           3.6390    -1.3670     0.4050 C             1 MOL        0.855194
      11 C10          4.7130    -2.2640    -0.1670 CT            1 MOL       -0.607860
      12 O1           3.7570    -0.8630     1.4950 O             1 MOL       -0.651181
      13 C            1.7790     1.1480    -0.3430 C             1 MOL        0.671490
      14 O            1.3910     1.6520    -1.3640 O             1 MOL       -0.568365
      15 N2           2.5440     1.7900     0.5590 N             1 MOL       -0.620586
      16 C12          3.0650     3.1130     0.2920 CT            1 MOL       -0.067919
      17 HH1         -7.2640    -1.3320     0.3810 HC            1 MOL        0.034419
      18 HH2         -8.0140     0.2440     0.5500 HC            1 MOL        0.034419
      19 HH3         -7.1130    -0.1510    -0.9070 HC            1 MOL        0.034419
      20 HG1         -5.7640     1.3310     0.6030 HC            1 MOL        0.000586
      21 HG2         -5.9370     0.1710     1.8940 HC            1 MOL        0.000586
      22 HF          -4.5950    -1.5120     0.5380 HA            1 MOL        0.165499
      23 HE          -3.6380     1.1690    -0.4990 HA            1 MOL        0.166944
      24 HD1         -2.4770    -1.6770    -0.5750 HC            1 MOL        0.009423
      25 HD2         -2.2910    -0.5020    -1.8530 HC            1 MOL        0.009423
      26 HC1         -1.0140     0.9850    -0.3090 HC            1 MOL        0.020183
      27 HC2         -1.1680    -0.2090     0.9580 HC            1 MOL        0.020183
      28 HB1          0.0730    -1.8560    -0.4590 HC            1 MOL        0.015200
      29 HB2          0.2360    -0.6410    -1.7140 HC            1 MOL        0.015200
      30 HA           1.3600    -0.3920     1.0960 H1            1 MOL        0.057531
      31 H            2.5560    -1.5190    -1.3040 H             1 MOL        0.324745
      32 H16          4.3810    -2.8410    -1.0210 HC            1 MOL        0.165278
      33 H17          5.0530    -2.9340     0.6120 HC            1 MOL        0.165278
      34 H18          5.5550    -1.6490    -0.4660 HC            1 MOL        0.165278
      35 H19          2.9720     1.2400     1.2720 H             1 MOL        0.383904
      36 H20          2.2650     3.7650    -0.0280 H1            1 MOL        0.082192
      37 H21          3.4970     3.5050     1.2030 H1            1 MOL        0.082192
      38 H22          3.8260     3.1030    -0.4820 H1            1 MOL        0.082192
@<TRIPOS>BOND
       1        1        2 1
       2        1       17 1
       3        1       18 1
       4        1       19 1
       5        2        3 1
       6        2       20 1
       7        2       21 1
       8        3        4 2
       9        3       22 1
      10        4        5 1
      11        4       23 1
      12        5        6 1
      13        5       24 1
      14        5       25 1
      15        6        7 1
      16        6       26 1
      17        6       27 1
      18        7        8 1
      19        7       28 1
      20        7       29 1
      21        8        9 1
      22        8       13 1
      23        8       30 1
      24        9       10 1
      25        9       31 1
      26       10       11 1
      27       10       12 2
      28       11       32 1
      29       11       33 1
      30       11       34 1
      31       13       14 2
      32       13       15 1
      33       15       16 1
      34       15       35 1
      35       16       36 1
      36       16       37 1
      37       16       38 1
@<TRIPOS>SUBSTRUCTURE
       1 MOL             1 RESIDUE    0 **** ROOT      0
