@<TRIPOS>MOLECULE
MOL
38 37 1 0 1
SMALL
USER_CHARGES
@<TRIPOS>ATOM
       1 CH          -6.1360     0.4750    -0.7310 CT            1 MOL       -0.224033
       2 CG          -4.6530     0.3630    -1.1010 CT            1 MOL        0.192874
       3 CY          -3.7590     0.2940     0.1080 CM            1 MOL       -0.310585
       4 CE          -2.9570    -0.7100     0.4110 CM            1 MOL       -0.139483
       5 CD          -2.0750    -0.7900     1.6290 CT            1 MOL       -0.058459
       6 CC          -0.5830    -0.9580     1.3010 CT            1 MOL       -0.094106
       7 CB           0.0230     0.2640     0.6110 CT            1 MOL        0.011388
       8 CA           1.5280     0.1180     0.3210 CT            1 MOL       -0.073682
       9 N            1.8150    -0.9490    -0.6100 N             1 MOL       -0.630820
      10 C9           2.4060    -2.1080    -0.2370 C             1 MOL        0.837988
      11 C10          2.8240    -3.0110    -1.3780 CT            1 MOL       -0.454826
      12 O1           2.6020    -2.4030     0.9110 O             1 MOL       -0.642726
      13 C            2.0490     1.4190    -0.2860 C             1 MOL        0.701335
      14 O            2.0820     1.5810    -1.4790 O             1 MOL       -0.580989
      15 N2           2.4130     2.3730     0.5900 N             1 MOL       -0.502491
      16 C12          2.9130     3.6600     0.1520 CT            1 MOL       -0.269587
      17 HH1         -6.7550     0.5500    -1.6200 HC            1 MOL        0.053585
      18 HH2         -6.3220     1.3560    -0.1230 HC            1 MOL        0.053585
      19 HH3         -6.4600    -0.3920    -0.1650 HC            1 MOL        0.053585
      20 HG1         -4.3750     1.2250    -1.7050 HC            1 MOL       -0.006314
      21 HG2         -4.4960    -0.5140    -1.7220 HC            1 MOL       -0.006314
      22 HF          -3.8060     1.1450     0.7740 HA            1 MOL        0.164997
      23 HE          -2.9120    -1.5610    -0.2540 HA            1 MOL        0.137892
      24 HD1         -2.2200     0.0930     2.2460 HC            1 MOL        0.042410
      25 HD2         -2.3850    -1.6420     2.2310 HC            1 MOL        0.042410
      26 HC1         -0.0400    -1.1600     2.2200 HC            1 MOL        0.060022
      27 HC2         -0.4500    -1.8340     0.6740 HC            1 MOL        0.060022
      28 HB1         -0.4910     0.4650    -0.3230 HC            1 MOL        0.023304
      29 HB2         -0.1230     1.1400     1.2410 HC            1 MOL        0.023304
      30 HA           2.0530    -0.1050     1.2400 H1            1 MOL        0.103134
      31 H            1.8050    -0.6890    -1.5720 H             1 MOL        0.333206
      32 H16          2.1850    -2.9050    -2.2470 HC            1 MOL        0.123706
      33 H17          3.8400    -2.7620    -1.6690 HC            1 MOL        0.123706
      34 H18          2.8100    -4.0360    -1.0360 HC            1 MOL        0.123706
      35 H19          2.4750     2.1410     1.5540 H             1 MOL        0.329185
      36 H20          2.9490     4.3260     1.0030 H1            1 MOL        0.133025
      37 H21          2.2520     4.0760    -0.5940 H1            1 MOL        0.133025
      38 H22          3.9060     3.5790    -0.2760 H1            1 MOL        0.133025
@<TRIPOS>BOND
       1        1        2 1
       2        1       17 1
       3        1       18 1
       4        1       19 1
       5        2        3 1
       6        2       20 1
       7        2       21 1
       8        3        4 2
       9        3       22 1
      10        4        5 1
      11        4       23 1
      12        5        6 1
      13        5       24 1
      14        5       25 1
      15        6        7 1
      16        6       26 1
      17        6       27 1
      18        7        8 1
      19        7       28 1
      20        7       29 1
      21        8        9 1
      22        8       13 1
      23        8       30 1
      24        9       10 1
      25        9       31 1
      26       10       11 1
      27       10       12 2
      28       11       32 1
      29       11       33 1
      30       11       34 1
      31       13       14 2
      32       13       15 1
      33       15       16 1
      34       15       35 1
      35       16       36 1
      36       16       37 1
      37       16       38 1
@<TRIPOS>SUBSTRUCTURE
       1 MOL             1 RESIDUE    0 **** ROOT      0
