@<TRIPOS>MOLECULE
MOL
38 37 1 0 1
SMALL
USER_CHARGES
@<TRIPOS>ATOM
       1 CH          -6.2740     0.0130     1.6750 CT            1 MOL       -0.159944
       2 CG          -5.9720     0.1150     0.1760 CT            1 MOL        0.154207
       3 CY          -4.6930    -0.5830    -0.2040 CM            1 MOL       -0.266840
       4 CE          -3.6410    -0.0050    -0.7550 CM            1 MOL       -0.282239
       5 CD          -2.3590    -0.7020    -1.1240 CT            1 MOL        0.071968
       6 CC          -1.1460    -0.1380    -0.3730 CT            1 MOL        0.039935
       7 CB           0.1590    -0.8210    -0.7860 CT            1 MOL       -0.097960
       8 CA           1.3790    -0.3100    -0.0230 CT            1 MOL        0.004240
       9 N            2.5390    -1.1400    -0.3240 N             1 MOL       -0.565403
      10 C9           3.5550    -1.3220     0.5450 C             1 MOL        0.841185
      11 C10          4.6910    -2.1980     0.0670 CT            1 MOL       -0.606130
      12 O1           3.5740    -0.8110     1.6370 O             1 MOL       -0.646239
      13 C            1.7100     1.1500    -0.3660 C             1 MOL        0.668158
      14 O            1.3970     1.6420    -1.4190 O             1 MOL       -0.565705
      15 N2           2.3850     1.8120     0.5910 N             1 MOL       -0.613076
      16 C12          2.8990     3.1440     0.3600 CT            1 MOL       -0.064923
      17 HH1         -7.2130     0.5010     1.9170 HC            1 MOL        0.038487
      18 HH2         -5.4890     0.4800     2.2610 HC            1 MOL        0.038487
      19 HH3         -6.3500    -1.0240     1.9890 HC            1 MOL        0.038487
      20 HG1         -5.9180     1.1600    -0.1170 HC            1 MOL       -0.000988
      21 HG2         -6.7980    -0.3220    -0.3810 HC            1 MOL       -0.000988
      22 HF          -4.6570    -1.6420     0.0070 HA            1 MOL        0.161623
      23 HE          -3.6750     1.0550    -0.9640 HA            1 MOL        0.169454
      24 HD1         -2.4520    -1.7670    -0.9280 HC            1 MOL        0.014380
      25 HD2         -2.1880    -0.5940    -2.1940 HC            1 MOL        0.014380
      26 HC1         -1.3040    -0.2640     0.6960 HC            1 MOL        0.018377
      27 HC2         -1.0720     0.9270    -0.5610 HC            1 MOL        0.018377
      28 HB1          0.3220    -0.6770    -1.8490 HC            1 MOL        0.036134
      29 HB2          0.0820    -1.8900    -0.6050 HC            1 MOL        0.036134
      30 HA           1.2080    -0.3930     1.0420 H1            1 MOL        0.066681
      31 H            2.6180    -1.5040    -1.2460 H             1 MOL        0.321020
      32 H16          5.5410    -1.5660    -0.1660 HC            1 MOL        0.164865
      33 H17          4.4410    -2.7860    -0.8070 HC            1 MOL        0.164865
      34 H18          4.9810    -2.8570     0.8750 HC            1 MOL        0.164865
      35 H19          2.7650     1.2740     1.3400 H             1 MOL        0.380754
      36 H20          2.1140     3.7780    -0.0280 H1            1 MOL        0.081125
      37 H21          3.7210     3.1470    -0.3490 H1            1 MOL        0.081125
      38 H22          3.2460     3.5490     1.3010 H1            1 MOL        0.081125
@<TRIPOS>BOND
       1        1        2 1
       2        1       17 1
       3        1       18 1
       4        1       19 1
       5        2        3 1
       6        2       20 1
       7        2       21 1
       8        3        4 2
       9        3       22 1
      10        4        5 1
      11        4       23 1
      12        5        6 1
      13        5       24 1
      14        5       25 1
      15        6        7 1
      16        6       26 1
      17        6       27 1
      18        7        8 1
      19        7       28 1
      20        7       29 1
      21        8        9 1
      22        8       13 1
      23        8       30 1
      24        9       10 1
      25        9       31 1
      26       10       11 1
      27       10       12 2
      28       11       32 1
      29       11       33 1
      30       11       34 1
      31       13       14 2
      32       13       15 1
      33       15       16 1
      34       15       35 1
      35       16       36 1
      36       16       37 1
      37       16       38 1
@<TRIPOS>SUBSTRUCTURE
       1 MOL             1 RESIDUE    0 **** ROOT      0
