@<TRIPOS>MOLECULE
MOL
38 37 1 0 1
SMALL
USER_CHARGES
@<TRIPOS>ATOM
       1 CH          -5.8450    -0.5040     1.6690 CT            1 MOL       -0.180987
       2 CG          -5.4740     0.1230     0.3210 CT            1 MOL        0.106208
       3 CY          -3.9880     0.2940     0.1520 CM            1 MOL       -0.205579
       4 CE          -3.2570    -0.2600    -0.7980 CM            1 MOL       -0.374885
       5 CD          -1.7690    -0.0970    -0.9610 CT            1 MOL        0.254315
       6 CC          -1.0340    -1.4390    -0.8350 CT            1 MOL       -0.045611
       7 CB           0.4680    -1.4180    -1.1490 CT            1 MOL       -0.085227
       8 CA           1.3110    -0.5530    -0.2080 CT            1 MOL        0.077501
       9 N            2.7010    -0.9960    -0.2300 N             1 MOL       -0.644695
      10 C9           3.5310    -0.8360     0.8220 C             1 MOL        0.854167
      11 C10          4.9550    -1.3030     0.6230 CT            1 MOL       -0.548715
      12 O1           3.1720    -0.3410     1.8610 O             1 MOL       -0.649575
      13 C            1.2870     0.9340    -0.5880 C             1 MOL        0.692783
      14 O            1.1750     1.2950    -1.7300 O             1 MOL       -0.604320
      15 N2           1.4300     1.7820     0.4490 N             1 MOL       -0.549231
      16 C12          1.6000     3.2020     0.2320 CT            1 MOL       -0.165019
      17 HH1         -6.9220    -0.5910     1.7740 HC            1 MOL        0.045902
      18 HH2         -5.4150    -1.4960     1.7660 HC            1 MOL        0.045902
      19 HH3         -5.4790     0.0990     2.4950 HC            1 MOL        0.045902
      20 HG1         -5.8660    -0.4870    -0.4880 HC            1 MOL        0.014693
      21 HG2         -5.9580     1.0950     0.2390 HC            1 MOL        0.014693
      22 HF          -3.5030     0.9230     0.8840 HA            1 MOL        0.142903
      23 HE          -3.7430    -0.8910    -1.5290 HA            1 MOL        0.172442
      24 HD1         -1.5520     0.3390    -1.9320 HC            1 MOL       -0.016575
      25 HD2         -1.4050     0.6060    -0.2180 HC            1 MOL       -0.016575
      26 HC1         -1.4970    -2.1540    -1.5120 HC            1 MOL        0.018595
      27 HC2         -1.1860    -1.8330     0.1670 HC            1 MOL        0.018595
      28 HB1          0.6330    -1.0910    -2.1700 HC            1 MOL        0.042187
      29 HB2          0.8370    -2.4370    -1.0670 HC            1 MOL        0.042187
      30 HA           0.9690    -0.6730     0.8100 H1            1 MOL        0.051796
      31 H            3.0740    -1.2990    -1.1010 H             1 MOL        0.333149
      32 H16          5.0760    -1.9570    -0.2310 HC            1 MOL        0.150068
      33 H17          5.5890    -0.4330     0.4900 HC            1 MOL        0.150068
      34 H18          5.2780    -1.8150     1.5200 HC            1 MOL        0.150068
      35 H19          1.7520     1.3930     1.3090 H             1 MOL        0.348777
      36 H20          2.5650     3.4360    -0.2090 H1            1 MOL        0.104696
      37 H21          1.5160     3.7110     1.1830 H1            1 MOL        0.104696
      38 H22          0.8280     3.5640    -0.4310 H1            1 MOL        0.104696
@<TRIPOS>BOND
       1        1        2 1
       2        1       17 1
       3        1       18 1
       4        1       19 1
       5        2        3 1
       6        2       20 1
       7        2       21 1
       8        3        4 2
       9        3       22 1
      10        4        5 1
      11        4       23 1
      12        5        6 1
      13        5       24 1
      14        5       25 1
      15        6        7 1
      16        6       26 1
      17        6       27 1
      18        7        8 1
      19        7       28 1
      20        7       29 1
      21        8        9 1
      22        8       13 1
      23        8       30 1
      24        9       10 1
      25        9       31 1
      26       10       11 1
      27       10       12 2
      28       11       32 1
      29       11       33 1
      30       11       34 1
      31       13       14 2
      32       13       15 1
      33       15       16 1
      34       15       35 1
      35       16       36 1
      36       16       37 1
      37       16       38 1
@<TRIPOS>SUBSTRUCTURE
       1 MOL             1 RESIDUE    0 **** ROOT      0
