@<TRIPOS>MOLECULE
MOL
38 37 1 0 1
SMALL
USER_CHARGES
@<TRIPOS>ATOM
       1 CH           6.8230    -0.6310    -0.2330 CT            1 MOL       -0.151071
       2 CG           5.6270     0.2660     0.1020 CT            1 MOL        0.139594
       3 CY           4.3190    -0.3150    -0.3660 CM            1 MOL       -0.250985
       4 CE           3.3010    -0.6310     0.4130 CM            1 MOL       -0.246279
       5 CD           1.9940    -1.2120    -0.0570 CT            1 MOL        0.027888
       6 CC           0.7950    -0.3180     0.2850 CT            1 MOL       -0.024978
       7 CB          -0.5290    -0.9250    -0.1770 CT            1 MOL       -0.013536
       8 CA          -1.7590    -0.0740     0.1880 CT            1 MOL       -0.019860
       9 N           -1.7460     1.2250    -0.4430 N             1 MOL       -0.633438
      10 C9          -1.5270     2.3700     0.2460 C             1 MOL        0.832397
      11 C10         -1.7560     3.6450    -0.5380 CT            1 MOL       -0.434751
      12 O1          -1.1890     2.3860     1.3990 O             1 MOL       -0.645129
      13 C           -3.0220    -0.8020    -0.2680 C             1 MOL        0.665887
      14 O           -3.4920    -0.6080    -1.3600 O             1 MOL       -0.578292
      15 N2          -3.5310    -1.6970     0.5980 N             1 MOL       -0.467449
      16 C12         -4.7200    -2.4640     0.2900 CT            1 MOL       -0.348172
      17 HH1          7.7540    -0.1760     0.0910 HC            1 MOL        0.036273
      18 HH2          6.8940    -0.8050    -1.3030 HC            1 MOL        0.036273
      19 HH3          6.7310    -1.5970     0.2530 HC            1 MOL        0.036273
      20 HG1          5.5870     0.4380     1.1740 HC            1 MOL        0.001370
      21 HG2          5.7740     1.2380    -0.3640 HC            1 MOL        0.001370
      22 HF           4.2360    -0.4850    -1.4300 HA            1 MOL        0.160161
      23 HE           3.3830    -0.4610     1.4770 HA            1 MOL        0.151508
      24 HD1          2.0330    -1.3790    -1.1300 HC            1 MOL        0.023250
      25 HD2          1.8500    -2.1890     0.4040 HC            1 MOL        0.023250
      26 HC1          0.7620    -0.1460     1.3580 HC            1 MOL        0.037394
      27 HC2          0.9340     0.6540    -0.1750 HC            1 MOL        0.037394
      28 HB1         -0.5180    -1.0660    -1.2550 HC            1 MOL        0.019053
      29 HB2         -0.6500    -1.9120     0.2640 HC            1 MOL        0.019053
      30 HA          -1.7800     0.0860     1.2570 H1            1 MOL        0.093209
      31 H           -2.1600     1.2660    -1.3480 H             1 MOL        0.331312
      32 H16         -1.5650     3.5210    -1.5980 HC            1 MOL        0.119155
      33 H17         -1.1190     4.4200    -0.1390 HC            1 MOL        0.119155
      34 H18         -2.7890     3.9540    -0.4110 HC            1 MOL        0.119155
      35 H19         -3.1750    -1.7220     1.5250 H             1 MOL        0.322719
      36 H20         -5.6130    -1.8500     0.3230 H1            1 MOL        0.153616
      37 H21         -4.6350    -2.8920    -0.6980 H1            1 MOL        0.153616
      38 H22         -4.8150    -3.2630     1.0140 H1            1 MOL        0.153616
@<TRIPOS>BOND
       1        1        2 1
       2        1       17 1
       3        1       18 1
       4        1       19 1
       5        2        3 1
       6        2       20 1
       7        2       21 1
       8        3        4 2
       9        3       22 1
      10        4        5 1
      11        4       23 1
      12        5        6 1
      13        5       24 1
      14        5       25 1
      15        6        7 1
      16        6       26 1
      17        6       27 1
      18        7        8 1
      19        7       28 1
      20        7       29 1
      21        8        9 1
      22        8       13 1
      23        8       30 1
      24        9       10 1
      25        9       31 1
      26       10       11 1
      27       10       12 2
      28       11       32 1
      29       11       33 1
      30       11       34 1
      31       13       14 2
      32       13       15 1
      33       15       16 1
      34       15       35 1
      35       16       36 1
      36       16       37 1
      37       16       38 1
@<TRIPOS>SUBSTRUCTURE
       1 MOL             1 RESIDUE    0 **** ROOT      0
