@<TRIPOS>MOLECULE
MOL
   64    63     1     0     0
SMALL
resp


@<TRIPOS>ATOM
      1 C1           4.7010     3.7210    -0.0650 CT         1 MOL      -0.140638
      2 N1           4.2690     2.3970     0.3370 N          1 MOL      -0.621774
      3 C2           5.1830     1.4440     0.6120 C          1 MOL       0.900486
      4 O1           6.3600     1.6840     0.6810 O          1 MOL      -0.625595
      5 C3           4.6810     0.0200     0.9660 CT         1 MOL      -0.082397
      6 C4           4.8690    -0.1150     2.4850 CT         1 MOL      -0.410591
      7 C5           3.2130    -0.2470     0.5660 CT         1 MOL       0.226449
      8 C6           2.7320    -1.6870     0.7630 CT         1 MOL      -0.028056
      9 C7           1.2500    -1.8710     0.3960 CT         1 MOL       0.089813
     10 C8           0.9680    -1.6410    -1.0670 CM         1 MOL      -0.114060
     11 C9           0.0570    -0.8590    -1.6230 CM         1 MOL      -0.417429
     12 C10         -0.9610     0.0230    -0.9470 CT         1 MOL       0.133918
     13 C11         -2.3970    -0.4720    -1.1800 CT         1 MOL      -0.005312
     14 C12         -3.4300     0.4770    -0.5670 CT         1 MOL      -0.011296
     15 C13         -4.9080     0.0240    -0.6940 CT         1 MOL       0.226257
     16 C14         -5.3470     0.0310    -2.1720 CT         1 MOL      -0.288782
     17 N2          -5.1170    -1.3380    -0.2350 N          1 MOL      -0.867164
     18 C15         -5.0820    -1.8780     1.0300 C          1 MOL       0.913790
     19 C16         -4.2800    -1.2030     2.1190 CT         1 MOL      -0.557926
     20 O2          -5.6200    -2.9300     1.2260 O          1 MOL      -0.643925
     21 C17         -5.8380     0.9980     0.0760 C          1 MOL       0.821067
     22 O3          -6.6040     0.6110     0.9150 O          1 MOL      -0.596394
     23 N3          -5.7490     2.3060    -0.2490 N          1 MOL      -0.649980
     24 C18         -6.6290     3.2860     0.3550 CT         1 MOL      -0.308847
     25 N4           5.5870    -0.9340     0.3340 N          1 MOL      -0.786584
     26 C19          5.8410    -0.8940    -1.0040 C          1 MOL       0.878467
     27 C20          7.0520    -1.6800    -1.4520 CT         1 MOL      -0.315112
     28 O4           5.1550    -0.2790    -1.7740 O          1 MOL      -0.633292
     29 H1           5.3910     4.1160     0.6660 H1         1 MOL       0.098776
     30 H2           5.1950     3.7080    -1.0300 H1         1 MOL       0.098776
     31 H3           3.8340     4.3660    -0.1160 H1         1 MOL       0.098776
     32 H4           3.3670     2.1080     0.0430 H          1 MOL       0.345891
     33 H5           5.8870     0.1320     2.7600 HC         1 MOL       0.128734
     34 H6           4.6540    -1.1240     2.8130 HC         1 MOL       0.128734
     35 H7           4.2060     0.5640     3.0100 HC         1 MOL       0.128734
     36 H8           3.0760     0.0170    -0.4740 HC         1 MOL      -0.040479
     37 H9           2.5820     0.4110     1.1590 HC         1 MOL      -0.040479
     38 H10          2.8620    -1.9940     1.7960 HC         1 MOL       0.015525
     39 H11          3.3360    -2.3570     0.1620 HC         1 MOL       0.015525
     40 H12          0.6380    -1.2300     1.0200 HC         1 MOL      -0.002096
     41 H13          0.9690    -2.8930     0.6410 HC         1 MOL      -0.002096
     42 H14          1.6020    -2.2060    -1.7340 HA         1 MOL       0.119331
     43 H15          0.0090    -0.8490    -2.7010 HA         1 MOL       0.169684
     44 H16         -0.8650     1.0330    -1.3440 HC         1 MOL       0.017952
     45 H17         -0.7730     0.0930     0.1180 HC         1 MOL       0.017952
     46 H18         -2.5060    -1.4650    -0.7610 HC         1 MOL       0.040250
     47 H19         -2.5670    -0.5690    -2.2490 HC         1 MOL       0.040250
     48 H20         -3.3270     1.4490    -1.0390 HC         1 MOL      -0.037554
     49 H21         -3.1910     0.6360     0.4780 HC         1 MOL      -0.037554
     50 H22         -6.4130    -0.1550    -2.2530 HC         1 MOL       0.079613
     51 H23         -5.1370     0.9800    -2.6500 HC         1 MOL       0.079613
     52 H24         -4.8270    -0.7430    -2.7200 HC         1 MOL       0.079613
     53 H25         -5.7530    -1.8670    -0.7920 H          1 MOL       0.398060
     54 H26         -3.2210    -1.2590     1.8880 HC         1 MOL       0.160198
     55 H27         -4.4640    -1.7440     3.0350 HC         1 MOL       0.160198
     56 H28         -4.5570    -0.1690     2.2530 HC         1 MOL       0.160198
     57 H29         -5.1710     2.5930    -1.0010 H          1 MOL       0.394773
     58 H30         -7.6610     3.1260     0.0670 H1         1 MOL       0.147328
     59 H31         -6.3210     4.2710     0.0320 H1         1 MOL       0.147328
     60 H32         -6.5660     3.2330     1.4330 H1         1 MOL       0.147328
     61 H33          6.3480    -1.2300     0.9030 H          1 MOL       0.401326
     62 H34          7.1710    -2.6000    -0.8920 HC         1 MOL       0.084900
     63 H35          7.9370    -1.0690    -1.3010 HC         1 MOL       0.084900
     64 H36          6.9590    -1.9010    -2.5050 HC         1 MOL       0.084900
@<TRIPOS>BOND
     1     1     2 1   
     2     1    29 1   
     3     1    30 1   
     4     1    31 1   
     5     2     3 1   
     6     2    32 1   
     7     3     4 2   
     8     3     5 1   
     9     5     6 1   
    10     5     7 1   
    11     5    25 1   
    12     6    33 1   
    13     6    34 1   
    14     6    35 1   
    15     7     8 1   
    16     7    36 1   
    17     7    37 1   
    18     8     9 1   
    19     8    38 1   
    20     8    39 1   
    21     9    10 1   
    22     9    40 1   
    23     9    41 1   
    24    10    11 2   
    25    10    42 1   
    26    11    12 1   
    27    11    43 1   
    28    12    13 1   
    29    12    44 1   
    30    12    45 1   
    31    13    14 1   
    32    13    46 1   
    33    13    47 1   
    34    14    15 1   
    35    14    48 1   
    36    14    49 1   
    37    15    16 1   
    38    15    17 1   
    39    15    21 1   
    40    16    50 1   
    41    16    51 1   
    42    16    52 1   
    43    17    18 1   
    44    17    53 1   
    45    18    19 1   
    46    18    20 2   
    47    19    54 1   
    48    19    55 1   
    49    19    56 1   
    50    21    22 2   
    51    21    23 1   
    52    23    24 1   
    53    23    57 1   
    54    24    58 1   
    55    24    59 1   
    56    24    60 1   
    57    25    26 1   
    58    25    61 1   
    59    26    27 1   
    60    26    28 2   
    61    27    62 1   
    62    27    63 1   
    63    27    64 1   
@<TRIPOS>SUBSTRUCTURE
     1 MOL         1 TEMP              0 ****  ****    0 ROOT
