@<TRIPOS>MOLECULE
MOL
64 63 1 0 1
SMALL
USER_CHARGES
@<TRIPOS>ATOM
       1 C1           6.5810     1.9970     0.9460 CT            1 MOL       -0.371906
       2 N1           5.3420     1.2460     0.9720 N             1 MOL       -0.553616
       3 C            5.1480     0.1980     0.1550 C             1 MOL        0.829869
       4 O            5.9980    -0.1580    -0.6230 O             1 MOL       -0.624593
       5 CA           3.7810    -0.5190     0.2200 CX            1 MOL        0.027468
       6 C1B          3.3030    -0.7040     1.6690 CU            1 MOL       -0.433334
       7 C2B          2.7630     0.2420    -0.6730 CU            1 MOL       -0.158297
       8 CY           2.2360     1.5960    -0.1900 CU            1 MOL        0.099464
       9 CD           1.1620     2.1360    -1.1470 CU            1 MOL        0.080903
      10 CE           0.5500     3.4310    -0.6740 CM            1 MOL       -0.309849
      11 CF          -0.6130     3.5780    -0.0600 CM            1 MOL       -0.309849
      12 CG          -1.5940     2.4920     0.3060 CU            1 MOL        0.080903
      13 CH          -2.8240     2.4990    -0.6140 CU            1 MOL        0.099464
      14 CI          -3.9610     1.5420    -0.2100 CU            1 MOL       -0.158297
      15 CJ          -3.8530     0.0640    -0.6500 CT            1 MOL        0.027468
      16 C14         -3.8610    -0.0460    -2.1840 CT            1 MOL       -0.433334
      17 N2          -2.6260    -0.5740    -0.1810 N             1 MOL       -0.575732
      18 C15         -2.4600    -0.8910     1.1360 C             1 MOL        0.803581
      19 C16         -1.3780    -1.9030     1.4290 CT            1 MOL       -0.317826
      20 O2          -3.1350    -0.4020     2.0020 O             1 MOL       -0.633762
      21 C17         -5.0400    -0.8170    -0.1710 C             1 MOL        0.829869
      22 O3          -4.9720    -2.0090    -0.3110 O             1 MOL       -0.624593
      23 N3          -6.1500    -0.2120     0.3010 N             1 MOL       -0.553616
      24 C18         -7.2370    -1.0130     0.8290 CT            1 MOL       -0.371906
      25 N            4.0410    -1.8260    -0.3780 N             1 MOL       -0.575732
      26 C19          3.1390    -2.8100    -0.5620 C             1 MOL        0.803581
      27 C20          3.6530    -4.0160    -1.3220 CT            1 MOL       -0.317826
      28 O4           1.9960    -2.7660    -0.1770 O             1 MOL       -0.633762
      29 H1           6.7590     2.4130    -0.0370 H1            1 MOL        0.160434
      30 H2           6.5070     2.8030     1.6630 H1            1 MOL        0.160434
      31 H3           7.4210     1.3670     1.2070 H1            1 MOL        0.160434
      32 H4           4.6410     1.5050     1.6220 H             1 MOL        0.353438
      33 HB1          2.3940    -1.2860     1.6760 HC            1 MOL        0.135245
      34 HB2          3.0970     0.2380     2.1620 HC            1 MOL        0.135245
      35 HB3          4.0550    -1.2320     2.2440 HC            1 MOL        0.135245
      36 HB4          3.2210     0.3590    -1.6520 HC            1 MOL        0.046218
      37 HB5          1.9210    -0.4250    -0.8000 HC            1 MOL        0.046218
      38 HC1          1.7910     1.5000     0.7960 HC            1 MOL       -0.005845
      39 HC2          3.0380     2.3240    -0.1070 HC            1 MOL       -0.005845
      40 HD1          0.3950     1.3810    -1.2780 HC            1 MOL        0.041005
      41 HD2          1.6060     2.2920    -2.1270 HC            1 MOL        0.041005
      42 HE           1.1410     4.3160    -0.8550 HA            1 MOL        0.150664
      43 HF          -0.9140     4.5800     0.2080 HA            1 MOL        0.150664
      44 HG1         -1.9210     2.6480     1.3320 HC            1 MOL        0.041005
      45 HG2         -1.1190     1.5240     0.2820 HC            1 MOL        0.041005
      46 HH1         -3.2390     3.5040    -0.6090 HC            1 MOL       -0.005845
      47 HH2         -2.5060     2.3200    -1.6350 HC            1 MOL       -0.005845
      48 HI1         -4.8770     1.9270    -0.6510 HC            1 MOL        0.046218
      49 HI2         -4.0770     1.5840     0.8660 HC            1 MOL        0.046218
      50 H22         -4.7450     0.4300    -2.5930 HC            1 MOL        0.135245
      51 H23         -3.8710    -1.0870    -2.4820 HC            1 MOL        0.135245
      52 H24         -2.9870     0.4300    -2.6110 HC            1 MOL        0.135245
      53 H25         -2.2280    -1.2260    -0.8200 H             1 MOL        0.317230
      54 H26         -0.5360    -1.8350     0.7510 HC            1 MOL        0.088836
      55 H27         -1.0430    -1.7740     2.4480 HC            1 MOL        0.088836
      56 H28         -1.8080    -2.8960     1.3340 HC            1 MOL        0.088836
      57 H29         -6.0650     0.7130     0.6470 H             1 MOL        0.353438
      58 H30         -6.9490    -1.5370     1.7340 H1            1 MOL        0.160434
      59 H31         -8.0720    -0.3590     1.0460 H1            1 MOL        0.160434
      60 H32         -7.5420    -1.7420     0.0940 H1            1 MOL        0.160434
      61 H            4.9280    -1.9010    -0.8260 H             1 MOL        0.317230
      62 H34          4.7340    -4.0790    -1.3450 HC            1 MOL        0.088836
      63 H35          3.2860    -3.9620    -2.3420 HC            1 MOL        0.088836
      64 H36          3.2460    -4.9090    -0.8700 HC            1 MOL        0.088836
@<TRIPOS>BOND
       1        1        2 1
       2        1       29 1
       3        1       30 1
       4        1       31 1
       5        2        3 1
       6        2       32 1
       7        3        4 2
       8        3        5 1
       9        5        6 1
      10        5        7 1
      11        5       25 1
      12        6       33 1
      13        6       34 1
      14        6       35 1
      15        7        8 1
      16        7       36 1
      17        7       37 1
      18        8        9 1
      19        8       38 1
      20        8       39 1
      21        9       10 1
      22        9       40 1
      23        9       41 1
      24       10       11 2
      25       10       42 1
      26       11       12 1
      27       11       43 1
      28       12       13 1
      29       12       44 1
      30       12       45 1
      31       13       14 1
      32       13       46 1
      33       13       47 1
      34       14       15 1
      35       14       48 1
      36       14       49 1
      37       15       16 1
      38       15       17 1
      39       15       21 1
      40       16       50 1
      41       16       51 1
      42       16       52 1
      43       17       18 1
      44       17       53 1
      45       18       19 1
      46       18       20 2
      47       19       54 1
      48       19       55 1
      49       19       56 1
      50       21       22 2
      51       21       23 1
      52       23       24 1
      53       23       57 1
      54       24       58 1
      55       24       59 1
      56       24       60 1
      57       25       26 1
      58       25       61 1
      59       26       27 1
      60       26       28 2
      61       27       62 1
      62       27       63 1
      63       27       64 1
@<TRIPOS>SUBSTRUCTURE
       1 MOL             1 RESIDUE    0 **** ROOT      0
