@<TRIPOS>MOLECULE
MOL
   64    63     1     0     0
SMALL
resp


@<TRIPOS>ATOM
      1 C1          -4.4070     0.2420     2.9180 CT         1 MOL      -0.472403
      2 N1          -3.4590     0.0280     1.8460 N          1 MOL      -0.551919
      3 C2          -3.8480     0.1590     0.5580 C          1 MOL       0.807981
      4 O1          -4.8970     0.6560     0.2490 O          1 MOL      -0.624624
      5 C3          -2.8080    -0.2200    -0.5140 CT         1 MOL       0.208723
      6 C4          -3.5180    -0.5140    -1.8400 CT         1 MOL      -0.414771
      7 C5          -1.8100     0.9560    -0.6480 CT         1 MOL      -0.296689
      8 C6          -2.3920     2.3110    -1.0590 CT         1 MOL       0.014686
      9 C7          -1.3080     3.3940    -1.2100 CT         1 MOL       0.071452
     10 C8          -0.6710     3.7980     0.0960 CM         1 MOL      -0.251886
     11 C9           0.5960     3.6970     0.4630 CM         1 MOL      -0.251886
     12 C10          1.7460     3.1120    -0.3200 CT         1 MOL       0.071452
     13 C11          2.0760     1.6880     0.1500 CT         1 MOL       0.014686
     14 C12          3.2720     1.0730    -0.5830 CT         1 MOL      -0.296689
     15 C13          3.3940    -0.4660    -0.4240 CT         1 MOL       0.208723
     16 C14          4.7110    -0.9670    -1.0440 CT         1 MOL      -0.414771
     17 N2           3.3120    -0.8850     0.9670 N          1 MOL      -0.672206
     18 C15          4.1410    -0.4810     1.9550 C          1 MOL       0.861311
     19 C16          3.7700    -0.9710     3.3400 CT         1 MOL      -0.430095
     20 O2           5.0950     0.2310     1.7780 O          1 MOL      -0.636910
     21 C17          2.1800    -1.1270    -1.1100 C          1 MOL       0.807981
     22 O3           1.2660    -1.6000    -0.4690 O          1 MOL      -0.624624
     23 N3           2.1680    -1.1320    -2.4480 N          1 MOL      -0.551919
     24 C18          1.0830    -1.7280    -3.2040 CT         1 MOL      -0.472403
     25 N4          -2.0040    -1.3730    -0.0920 N          1 MOL      -0.672206
     26 C19         -2.5350    -2.5890     0.1910 C          1 MOL       0.861311
     27 C20         -1.5440    -3.7230     0.3540 CT         1 MOL      -0.430095
     28 O4          -3.7160    -2.7680     0.3240 O          1 MOL      -0.636910
     29 H1          -3.8730     0.2360     3.8600 H1         1 MOL       0.189464
     30 H2          -4.8860     1.2010     2.7930 H1         1 MOL       0.189464
     31 H3          -5.1730    -0.5260     2.9390 H1         1 MOL       0.189464
     32 H4          -2.6950    -0.5820     2.0240 H          1 MOL       0.346440
     33 H5          -2.7760    -0.6960    -2.6120 HC         1 MOL       0.124923
     34 H6          -4.1450    -1.3890    -1.7440 HC         1 MOL       0.124923
     35 H7          -4.1440     0.3120    -2.1380 HC         1 MOL       0.124923
     36 H8          -1.0650     0.6620    -1.3850 HC         1 MOL       0.105709
     37 H9          -1.2880     1.0640     0.2970 HC         1 MOL       0.105709
     38 H10         -2.9090     2.2190    -2.0080 HC         1 MOL       0.027900
     39 H11         -3.1330     2.6370    -0.3380 HC         1 MOL       0.027900
     40 H12         -0.5610     3.0610    -1.9220 HC         1 MOL       0.021843
     41 H13         -1.7750     4.2750    -1.6450 HC         1 MOL       0.021843
     42 H14         -1.3600     4.2220     0.8120 HA         1 MOL       0.138706
     43 H15          0.8540     4.0390     1.4530 HA         1 MOL       0.138706
     44 H16          1.5270     3.0990    -1.3820 HC         1 MOL       0.021843
     45 H17          2.6210     3.7460    -0.1940 HC         1 MOL       0.021843
     46 H18          2.2770     1.7020     1.2160 HC         1 MOL       0.027900
     47 H19          1.1940     1.0720     0.0170 HC         1 MOL       0.027900
     48 H20          3.2050     1.2950    -1.6450 HC         1 MOL       0.105709
     49 H21          4.1910     1.5170    -0.2270 HC         1 MOL       0.105709
     50 H22          5.5370    -0.6090    -0.4500 HC         1 MOL       0.124923
     51 H23          4.7390    -2.0510    -1.0640 HC         1 MOL       0.124923
     52 H24          4.8480    -0.5980    -2.0550 HC         1 MOL       0.124923
     53 H25          2.4900    -1.3920     1.2060 H          1 MOL       0.300864
     54 H26          3.2080    -1.8970     3.3230 HC         1 MOL       0.115759
     55 H27          3.1680    -0.2120     3.8290 HC         1 MOL       0.115759
     56 H28          4.6750    -1.1040     3.9150 HC         1 MOL       0.115759
     57 H29          2.9390    -0.7560    -2.9450 H          1 MOL       0.346440
     58 H30          0.1570    -1.1870    -3.0540 H1         1 MOL       0.189464
     59 H31          0.9330    -2.7580    -2.9100 H1         1 MOL       0.189464
     60 H32          1.3400    -1.6940    -4.2540 H1         1 MOL       0.189464
     61 H33         -1.0220    -1.3340    -0.2700 H          1 MOL       0.300864
     62 H34         -0.5130    -3.3970     0.3670 HC         1 MOL       0.115759
     63 H35         -1.7770    -4.2550     1.2670 HC         1 MOL       0.115759
     64 H36         -1.6850    -4.4150    -0.4700 HC         1 MOL       0.115759
@<TRIPOS>BOND
     1     1     2 1   
     2     1    29 1   
     3     1    30 1   
     4     1    31 1   
     5     2     3 1   
     6     2    32 1   
     7     3     4 2   
     8     3     5 1   
     9     5     6 1   
    10     5     7 1   
    11     5    25 1   
    12     6    33 1   
    13     6    34 1   
    14     6    35 1   
    15     7     8 1   
    16     7    36 1   
    17     7    37 1   
    18     8     9 1   
    19     8    38 1   
    20     8    39 1   
    21     9    10 1   
    22     9    40 1   
    23     9    41 1   
    24    10    11 2   
    25    10    42 1   
    26    11    12 1   
    27    11    43 1   
    28    12    13 1   
    29    12    44 1   
    30    12    45 1   
    31    13    14 1   
    32    13    46 1   
    33    13    47 1   
    34    14    15 1   
    35    14    48 1   
    36    14    49 1   
    37    15    16 1   
    38    15    17 1   
    39    15    21 1   
    40    16    50 1   
    41    16    51 1   
    42    16    52 1   
    43    17    18 1   
    44    17    53 1   
    45    18    19 1   
    46    18    20 2   
    47    19    54 1   
    48    19    55 1   
    49    19    56 1   
    50    21    22 2   
    51    21    23 1   
    52    23    24 1   
    53    23    57 1   
    54    24    58 1   
    55    24    59 1   
    56    24    60 1   
    57    25    26 1   
    58    25    61 1   
    59    26    27 1   
    60    26    28 2   
    61    27    62 1   
    62    27    63 1   
    63    27    64 1   
@<TRIPOS>SUBSTRUCTURE
     1 MOL         1 TEMP              0 ****  ****    0 ROOT
