@<TRIPOS>MOLECULE
MOL
64 63 1 0 1
SMALL
USER_CHARGES
@<TRIPOS>ATOM
       1 C1           2.1390    -2.2100    -2.4650 CT            1 MOL       -0.138082
       2 N1           2.1910    -2.2830    -1.0180 N             1 MOL       -0.465543
       3 C            2.8750    -1.6190    -0.0600 C             1 MOL        0.456206
       4 O            2.7070    -1.9440     1.0930 O             1 MOL       -0.618661
       5 CA           3.8330    -0.4350    -0.3570 CX            1 MOL        0.843943
       6 C1B          4.5730    -0.5270    -1.6980 CU            1 MOL       -0.623277
       7 C2B          3.0370     0.8880    -0.1930 CU            1 MOL       -0.437549
       8 CY           1.8420     1.1200    -1.1210 CU            1 MOL        0.164682
       9 CD           1.1910     2.4890    -0.8710 CU            1 MOL        0.062094
      10 CE          -0.0330     2.6850    -1.7270 CM            1 MOL       -0.265060
      11 CF          -1.2550     3.0030    -1.3340 CM            1 MOL       -0.231101
      12 CG          -1.7220     3.2880     0.0760 CU            1 MOL        0.025788
      13 CH          -2.2480     2.0610     0.8420 CU            1 MOL       -0.237127
      14 CI          -3.4120     1.3630     0.1300 CU            1 MOL        0.018380
      15 CJ          -4.1060     0.2510     0.9520 CT            1 MOL        0.145809
      16 C14         -4.9100     0.8560     2.1070 CT            1 MOL       -0.518893
      17 N2          -5.1030    -0.4560     0.1220 N             1 MOL       -0.754241
      18 C15         -4.9760    -0.9960    -1.1070 C             1 MOL        0.787705
      19 C16         -6.2610    -1.5120    -1.7220 CT            1 MOL       -0.476531
      20 O2          -3.9370    -1.0650    -1.7190 O             1 MOL       -0.633878
      21 C17         -3.0670    -0.7310     1.5480 C             1 MOL        0.724554
      22 O3          -2.8650    -0.7620     2.7350 O             1 MOL       -0.610474
      23 N3          -2.3970    -1.5030     0.6800 N             1 MOL       -0.450074
      24 C18         -1.3960    -2.4440     1.1350 CT            1 MOL       -0.358062
      25 N            4.8160    -0.5280     0.7270 N             1 MOL       -0.969126
      26 C19          5.8350     0.3320     0.9560 C             1 MOL        0.912495
      27 C20          6.5610     0.1060     2.2680 CT            1 MOL       -0.426454
      28 O4           6.1610     1.2200     0.2110 O             1 MOL       -0.657519
      29 H1           1.3450    -2.8710    -2.7840 H1            1 MOL        0.086200
      30 H2           3.0580    -2.5410    -2.9310 H1            1 MOL        0.086200
      31 H3           1.8970    -1.2190    -2.8180 H1            1 MOL        0.086200
      32 H4           1.6260    -2.9900    -0.6010 H             1 MOL        0.326977
      33 HB1          3.9260    -0.3390    -2.5410 HC            1 MOL        0.156506
      34 HB2          5.0270    -1.5040    -1.8170 HC            1 MOL        0.156506
      35 HB3          5.3560     0.2150    -1.7090 HC            1 MOL        0.156506
      36 HB4          3.7510     1.6940    -0.3130 HC            1 MOL        0.104087
      37 HB5          2.6910     0.9190     0.8350 HC            1 MOL        0.104087
      38 HC1          1.0930     0.3470    -0.9770 HC            1 MOL       -0.023133
      39 HC2          2.1500     1.0730    -2.1620 HC            1 MOL       -0.023133
      40 HD1          0.9450     2.5840     0.1810 HC            1 MOL        0.036301
      41 HD2          1.9180     3.2680    -1.0930 HC            1 MOL        0.036301
      42 HE           0.1240     2.5280    -2.7830 HA            1 MOL        0.127656
      43 HF          -2.0140     3.0730    -2.0960 HA            1 MOL        0.133950
      44 HG1         -2.5090     4.0370     0.0320 HC            1 MOL        0.038375
      45 HG2         -0.9190     3.7310     0.6550 HC            1 MOL        0.038375
      46 HH1         -2.5440     2.3880     1.8330 HC            1 MOL        0.093380
      47 HH2         -1.4330     1.3570     0.9790 HC            1 MOL        0.093380
      48 HI1         -4.1790     2.0920    -0.1230 HC            1 MOL        0.058881
      49 HI2         -3.0570     0.9480    -0.8010 HC            1 MOL        0.058881
      50 H22         -5.4240     0.0820     2.6660 HC            1 MOL        0.149441
      51 H23         -4.2680     1.3700     2.8030 HC            1 MOL        0.149441
      52 H24         -5.6410     1.5560     1.7150 HC            1 MOL        0.149441
      53 H25         -6.0080    -0.5160     0.5290 H             1 MOL        0.391724
      54 H26         -6.0380    -2.4040    -2.2900 HC            1 MOL        0.137078
      55 H27         -6.6380    -0.7620    -2.4090 HC            1 MOL        0.137078
      56 H28         -7.0310    -1.7290    -0.9920 HC            1 MOL        0.137078
      57 H29         -2.6120    -1.4420    -0.2910 H             1 MOL        0.352075
      58 H30         -0.4940    -1.9450     1.4700 H1            1 MOL        0.150434
      59 H31         -1.1480    -3.1000     0.3110 H1            1 MOL        0.150434
      60 H32         -1.7770    -3.0390     1.9540 H1            1 MOL        0.150434
      61 H            4.5200    -1.1000     1.4870 H             1 MOL        0.400635
      62 H34          6.0870     0.7080     3.0370 HC            1 MOL        0.114073
      63 H35          6.5410    -0.9300     2.5840 HC            1 MOL        0.114073
      64 H36          7.5840     0.4370     2.1600 HC            1 MOL        0.114073
@<TRIPOS>BOND
       1        1        2 1
       2        1       29 1
       3        1       30 1
       4        1       31 1
       5        2        3 1
       6        2       32 1
       7        3        4 2
       8        3        5 1
       9        5        6 1
      10        5        7 1
      11        5       25 1
      12        6       33 1
      13        6       34 1
      14        6       35 1
      15        7        8 1
      16        7       36 1
      17        7       37 1
      18        8        9 1
      19        8       38 1
      20        8       39 1
      21        9       10 1
      22        9       40 1
      23        9       41 1
      24       10       11 2
      25       10       42 1
      26       11       12 1
      27       11       43 1
      28       12       13 1
      29       12       44 1
      30       12       45 1
      31       13       14 1
      32       13       46 1
      33       13       47 1
      34       14       15 1
      35       14       48 1
      36       14       49 1
      37       15       16 1
      38       15       17 1
      39       15       21 1
      40       16       50 1
      41       16       51 1
      42       16       52 1
      43       17       18 1
      44       17       53 1
      45       18       19 1
      46       18       20 2
      47       19       54 1
      48       19       55 1
      49       19       56 1
      50       21       22 2
      51       21       23 1
      52       23       24 1
      53       23       57 1
      54       24       58 1
      55       24       59 1
      56       24       60 1
      57       25       26 1
      58       25       61 1
      59       26       27 1
      60       26       28 2
      61       27       62 1
      62       27       63 1
      63       27       64 1
@<TRIPOS>SUBSTRUCTURE
       1 MOL             1 RESIDUE    0 **** ROOT      0
