@<TRIPOS>MOLECULE
MOL
64 63 1 0 1
SMALL
USER_CHARGES
@<TRIPOS>ATOM
       1 C1           7.7120    -2.1250     1.4420 CT            1 MOL       -0.265027
       2 N1           6.3850    -1.6880     1.0580 N             1 MOL       -0.556787
       3 C            6.2090    -0.8920    -0.0160 C             1 MOL        0.815420
       4 O            7.1120    -0.6140    -0.7600 O             1 MOL       -0.621985
       5 CA           4.7630    -0.4490    -0.3600 CX            1 MOL       -0.032092
       6 C1B          4.2600    -1.5130    -1.3530 CU            1 MOL       -0.185839
       7 C2B          3.8440    -0.3480     0.8850 CU            1 MOL       -0.007784
       8 CY           2.6040     0.5550     0.8070 CU            1 MOL        0.007805
       9 CD           1.5190     0.1830    -0.2130 CU            1 MOL        0.127295
      10 CE           0.2990     1.0540    -0.0550 CM            1 MOL       -0.261064
      11 CF          -0.9380     0.6960     0.2510 CM            1 MOL       -0.261064
      12 CG          -1.4640    -0.6920     0.5190 CU            1 MOL        0.127295
      13 CH          -2.2780    -1.2880    -0.6450 CU            1 MOL        0.007805
      14 CI          -3.5650    -0.5640    -1.0730 CU            1 MOL       -0.007784
      15 CJ          -4.7850    -0.5830    -0.1150 CT            1 MOL       -0.032092
      16 C14         -5.0730    -2.0070     0.3770 CT            1 MOL       -0.185839
      17 N2          -4.5210     0.3000     1.0180 N             1 MOL       -0.631144
      18 C15         -5.5160     0.6480     1.8870 C             1 MOL        0.832897
      19 C16         -5.2110     1.8440     2.7600 CT            1 MOL       -0.382792
      20 O2          -6.5570     0.0550     1.9550 O             1 MOL       -0.609762
      21 C17         -5.9320     0.0540    -0.9380 C             1 MOL        0.815420
      22 O3          -5.9220     1.2390    -1.1420 O             1 MOL       -0.621985
      23 N3          -6.8520    -0.7660    -1.4860 N             1 MOL       -0.556787
      24 C18         -7.9770    -0.2140    -2.2140 CT            1 MOL       -0.265027
      25 N            4.8460     0.8150    -1.0800 N             1 MOL       -0.631144
      26 C19          5.4680     1.8960    -0.5210 C             1 MOL        0.832897
      27 C20          5.8860     2.9700    -1.4980 CT            1 MOL       -0.382792
      28 O4           5.6610     1.9900     0.6590 O             1 MOL       -0.609762
      29 H1           8.2040    -2.5880     0.6000 H1            1 MOL        0.131295
      30 H2           7.6180    -2.8510     2.2390 H1            1 MOL        0.131295
      31 H3           8.3230    -1.2980     1.7850 H1            1 MOL        0.131295
      32 H4           5.6660    -1.7420     1.7390 H             1 MOL        0.348809
      33 HB1          3.2780    -1.2660    -1.7310 HC            1 MOL        0.062758
      34 HB2          4.9440    -1.5960    -2.1910 HC            1 MOL        0.062758
      35 HB3          4.2070    -2.4820    -0.8710 HC            1 MOL        0.062758
      36 HB4          3.5250    -1.3560     1.1470 HC            1 MOL        0.013585
      37 HB5          4.4290     0.0300     1.7120 HC            1 MOL        0.013585
      38 HC1          2.9200     1.5770     0.6420 HC            1 MOL        0.013112
      39 HC2          2.1530     0.5360     1.7960 HC            1 MOL        0.013112
      40 HD1          1.9020     0.3270    -1.2190 HC            1 MOL        0.003668
      41 HD2          1.2620    -0.8670    -0.1200 HC            1 MOL        0.003668
      42 HE           0.4830     2.1060    -0.2120 HA            1 MOL        0.132418
      43 HF          -1.6640     1.4920     0.3130 HA            1 MOL        0.132418
      44 HG1         -0.6410    -1.3680     0.7220 HC            1 MOL        0.003668
      45 HG2         -2.0700    -0.6740     1.4200 HC            1 MOL        0.003668
      46 HH1         -1.6330    -1.3110    -1.5200 HC            1 MOL        0.013112
      47 HH2         -2.5030    -2.3240    -0.4140 HC            1 MOL        0.013112
      48 HI1         -3.3510     0.4700    -1.3260 HC            1 MOL        0.013585
      49 HI2         -3.8960    -1.0280    -1.9980 HC            1 MOL        0.013585
      50 H22         -5.0950    -2.7060    -0.4530 HC            1 MOL        0.062758
      51 H23         -6.0070    -2.0580     0.9170 HC            1 MOL        0.062758
      52 H24         -4.2890    -2.3220     1.0530 HC            1 MOL        0.062758
      53 H25         -3.8800     1.0360     0.8210 H             1 MOL        0.337136
      54 H26         -4.1720     1.8650     3.0700 HC            1 MOL        0.103202
      55 H27         -5.8530     1.8200     3.6280 HC            1 MOL        0.103202
      56 H28         -5.4190     2.7480     2.1970 HC            1 MOL        0.103202
      57 H29         -6.9660    -1.6700    -1.0940 H             1 MOL        0.348809
      58 H30         -8.5180    -1.0260    -2.6820 H1            1 MOL        0.131295
      59 H31         -8.6490     0.3330    -1.5620 H1            1 MOL        0.131295
      60 H32         -7.6200     0.4580    -2.9800 H1            1 MOL        0.131295
      61 H            5.0070     0.7120    -2.0580 H             1 MOL        0.337136
      62 H34          6.8260     2.6750    -1.9550 HC            1 MOL        0.103202
      63 H35          6.0350     3.8970    -0.9640 HC            1 MOL        0.103202
      64 H36          5.1520     3.1120    -2.2840 HC            1 MOL        0.103202
@<TRIPOS>BOND
       1        1        2 1
       2        1       29 1
       3        1       30 1
       4        1       31 1
       5        2        3 1
       6        2       32 1
       7        3        4 2
       8        3        5 1
       9        5        6 1
      10        5        7 1
      11        5       25 1
      12        6       33 1
      13        6       34 1
      14        6       35 1
      15        7        8 1
      16        7       36 1
      17        7       37 1
      18        8        9 1
      19        8       38 1
      20        8       39 1
      21        9       10 1
      22        9       40 1
      23        9       41 1
      24       10       11 2
      25       10       42 1
      26       11       12 1
      27       11       43 1
      28       12       13 1
      29       12       44 1
      30       12       45 1
      31       13       14 1
      32       13       46 1
      33       13       47 1
      34       14       15 1
      35       14       48 1
      36       14       49 1
      37       15       16 1
      38       15       17 1
      39       15       21 1
      40       16       50 1
      41       16       51 1
      42       16       52 1
      43       17       18 1
      44       17       53 1
      45       18       19 1
      46       18       20 2
      47       19       54 1
      48       19       55 1
      49       19       56 1
      50       21       22 2
      51       21       23 1
      52       23       24 1
      53       23       57 1
      54       24       58 1
      55       24       59 1
      56       24       60 1
      57       25       26 1
      58       25       61 1
      59       26       27 1
      60       26       28 2
      61       27       62 1
      62       27       63 1
      63       27       64 1
@<TRIPOS>SUBSTRUCTURE
       1 MOL             1 RESIDUE    0 **** ROOT      0
