@<TRIPOS>MOLECULE
MOL
64 63 1 0 1
SMALL
USER_CHARGES
@<TRIPOS>ATOM
       1 C1          -7.1160    -2.4210    -1.6450 CT            1 MOL       -0.342044
       2 N1          -6.6220    -1.7670    -0.4500 N             1 MOL       -0.579620
       3 C           -5.5970    -0.8910    -0.5360 C             1 MOL        0.854210
       4 O           -4.9720    -0.7390    -1.5520 O             1 MOL       -0.612035
       5 CA          -5.1670    -0.1640     0.7580 CX            1 MOL        0.062800
       6 C1B         -6.2720    -0.0580     1.8230 CU            1 MOL       -0.214524
       7 C2B         -3.9820    -0.9390     1.4000 CU            1 MOL       -0.163646
       8 CY          -2.8190    -1.4610     0.5360 CU            1 MOL        0.054842
       9 CD          -1.8660    -0.4450    -0.1190 CU            1 MOL        0.230434
      10 CE          -1.1490     0.4500     0.8620 CM            1 MOL       -0.293844
      11 CF           0.1380     0.4610     1.1710 CM            1 MOL       -0.293844
      12 CG           1.2430    -0.4040     0.6250 CU            1 MOL        0.230434
      13 CH           2.2820     0.4230    -0.1500 CU            1 MOL        0.054842
      14 CI           3.4730    -0.4010    -0.6820 CU            1 MOL       -0.163646
      15 CJ           4.7920    -0.3320     0.1300 CT            1 MOL        0.062800
      16 C14          4.6100    -0.8160     1.5710 CT            1 MOL       -0.214524
      17 N2           5.7370    -1.1950    -0.5930 N             1 MOL       -0.707798
      18 C15          7.0340    -1.3790    -0.2180 C             1 MOL        0.846136
      19 C16          7.7320    -2.5530    -0.8720 CT            1 MOL       -0.413898
      20 O2           7.5890    -0.6600     0.5640 O             1 MOL       -0.616378
      21 C17          5.2780     1.1310     0.1310 C             1 MOL        0.854210
      22 O3           5.0170     1.8610     1.0480 O             1 MOL       -0.612035
      23 N3           5.8870     1.5650    -0.9930 N             1 MOL       -0.579620
      24 C18          6.4710     2.8890    -1.0410 CT            1 MOL       -0.342044
      25 N           -4.7330     1.1810     0.4000 N             1 MOL       -0.707798
      26 C19         -5.5220     2.0170    -0.3280 C             1 MOL        0.846136
      27 C20         -4.8220     3.2340    -0.8890 CT            1 MOL       -0.413898
      28 O4          -6.6890     1.8070    -0.5190 O             1 MOL       -0.616378
      29 H1          -7.5680    -1.7150    -2.3330 H1            1 MOL        0.152417
      30 H2          -7.8540    -3.1580    -1.3550 H1            1 MOL        0.152417
      31 H3          -6.3030    -2.9200    -2.1510 H1            1 MOL        0.152417
      32 H4          -7.2590    -1.6680     0.3040 H             1 MOL        0.346296
      33 HB1         -6.5610    -1.0350     2.1960 HC            1 MOL        0.078030
      34 HB2         -5.8880     0.5080     2.6640 HC            1 MOL        0.078030
      35 HB3         -7.1420     0.4550     1.4410 HC            1 MOL        0.078030
      36 HB4         -3.6000    -0.3180     2.2040 HC            1 MOL        0.041969
      37 HB5         -4.4170    -1.8100     1.8800 HC            1 MOL        0.041969
      38 HC1         -2.2250    -2.0950     1.1900 HC            1 MOL        0.000109
      39 HC2         -3.2100    -2.1030    -0.2440 HC            1 MOL        0.000109
      40 HD1         -2.4150     0.1510    -0.8410 HC            1 MOL       -0.026711
      41 HD2         -1.1470    -1.0080    -0.7010 HC            1 MOL       -0.026711
      42 HE          -1.7670     1.1670     1.3820 HA            1 MOL        0.145545
      43 HF           0.4640     1.1860     1.9020 HA            1 MOL        0.145545
      44 HG1          1.7260    -0.9100     1.4570 HC            1 MOL       -0.026711
      45 HG2          0.8500    -1.1820    -0.0200 HC            1 MOL       -0.026711
      46 HH1          2.6360     1.2390     0.4680 HC            1 MOL        0.000109
      47 HH2          1.7770     0.8830    -0.9940 HC            1 MOL        0.000109
      48 HI1          3.7030    -0.0850    -1.6940 HC            1 MOL        0.041969
      49 HI2          3.1830    -1.4480    -0.7450 HC            1 MOL        0.041969
      50 H22          3.9210    -0.1810     2.1080 HC            1 MOL        0.078030
      51 H23          5.5540    -0.7980     2.0970 HC            1 MOL        0.078030
      52 H24          4.2270    -1.8320     1.5670 HC            1 MOL        0.078030
      53 H25          5.3260    -1.9180    -1.1410 H             1 MOL        0.350188
      54 H26          7.4950    -3.4590    -0.3220 HC            1 MOL        0.110419
      55 H27          8.8000    -2.3950    -0.8280 HC            1 MOL        0.110419
      56 H28          7.4240    -2.6920    -1.9020 HC            1 MOL        0.110419
      57 H29          6.2590     0.8740    -1.6010 H             1 MOL        0.346296
      58 H30          7.3340     2.9730    -0.3900 H1            1 MOL        0.152417
      59 H31          5.7380     3.6210    -0.7370 H1            1 MOL        0.152417
      60 H32          6.7730     3.0970    -2.0600 H1            1 MOL        0.152417
      61 H           -3.7550     1.3190     0.3030 H             1 MOL        0.350188
      62 H34         -5.5540     4.0070    -1.0740 HC            1 MOL        0.110419
      63 H35         -4.3590     2.9630    -1.8330 HC            1 MOL        0.110419
      64 H36         -4.0520     3.6090    -0.2240 HC            1 MOL        0.110419
@<TRIPOS>BOND
       1        1        2 1
       2        1       29 1
       3        1       30 1
       4        1       31 1
       5        2        3 1
       6        2       32 1
       7        3        4 2
       8        3        5 1
       9        5        6 1
      10        5        7 1
      11        5       25 1
      12        6       33 1
      13        6       34 1
      14        6       35 1
      15        7        8 1
      16        7       36 1
      17        7       37 1
      18        8        9 1
      19        8       38 1
      20        8       39 1
      21        9       10 1
      22        9       40 1
      23        9       41 1
      24       10       11 2
      25       10       42 1
      26       11       12 1
      27       11       43 1
      28       12       13 1
      29       12       44 1
      30       12       45 1
      31       13       14 1
      32       13       46 1
      33       13       47 1
      34       14       15 1
      35       14       48 1
      36       14       49 1
      37       15       16 1
      38       15       17 1
      39       15       21 1
      40       16       50 1
      41       16       51 1
      42       16       52 1
      43       17       18 1
      44       17       53 1
      45       18       19 1
      46       18       20 2
      47       19       54 1
      48       19       55 1
      49       19       56 1
      50       21       22 2
      51       21       23 1
      52       23       24 1
      53       23       57 1
      54       24       58 1
      55       24       59 1
      56       24       60 1
      57       25       26 1
      58       25       61 1
      59       26       27 1
      60       26       28 2
      61       27       62 1
      62       27       63 1
      63       27       64 1
@<TRIPOS>SUBSTRUCTURE
       1 MOL             1 RESIDUE    0 **** ROOT      0
