@<TRIPOS>MOLECULE
MOL
64 63 1 0 1
SMALL
USER_CHARGES
@<TRIPOS>ATOM
       1 C1          -6.6920    -1.7630     0.5860 CT            1 MOL       -0.278695
       2 N1          -5.6000    -0.8940     0.2060 N             1 MOL       -0.513435
       3 C           -4.6700    -0.5280     1.1020 C             1 MOL        0.774502
       4 O           -4.6590    -0.9490     2.2300 O             1 MOL       -0.611350
       5 CA          -3.5700     0.4420     0.6040 CX            1 MOL        0.078955
       6 C1B         -2.6770     0.8120     1.7920 CU            1 MOL       -0.466275
       7 C2B         -2.7350    -0.1920    -0.5320 CU            1 MOL       -0.131491
       8 CY          -2.0240    -1.4970    -0.1520 CU            1 MOL       -0.284732
       9 CD          -1.4080    -2.2230    -1.3610 CU            1 MOL        0.105460
      10 CE          -0.3600    -1.4200    -2.0900 CM            1 MOL       -0.245758
      11 CF           0.9540    -1.5830    -2.0790 CM            1 MOL       -0.245758
      12 CG           1.7550    -2.6190    -1.3300 CU            1 MOL        0.105460
      13 CH           2.5940    -2.0510    -0.1700 CU            1 MOL       -0.284732
      14 CI           3.7030    -1.1020    -0.6390 CU            1 MOL       -0.131491
      15 CJ           4.5870    -0.5200     0.4890 CT            1 MOL        0.078955
      16 C14          5.3830    -1.6270     1.1860 CT            1 MOL       -0.466275
      17 N2           5.6050     0.3900    -0.0770 N             1 MOL       -0.716638
      18 C15          5.4590     1.4070    -0.9500 C             1 MOL        0.788091
      19 C16          6.7510     2.0350    -1.4320 CT            1 MOL       -0.429316
      20 O2           4.3960     1.8070    -1.3600 O             1 MOL       -0.638553
      21 C17          3.7290     0.2080     1.5530 C             1 MOL        0.774502
      22 O3           3.6620    -0.2080     2.6810 O             1 MOL       -0.611350
      23 N3           3.0480     1.2880     1.1420 N             1 MOL       -0.513435
      24 C18          2.2380     2.0490     2.0680 CT            1 MOL       -0.278695
      25 N           -4.1680     1.7170     0.1550 N             1 MOL       -0.716638
      26 C19         -4.8590     1.9900    -0.9700 C             1 MOL        0.788091
      27 C20         -5.1970     3.4520    -1.1810 CT            1 MOL       -0.429316
      28 O4          -5.1850     1.1630    -1.7870 O             1 MOL       -0.638553
      29 H1          -7.3300    -1.3020     1.3310 H1            1 MOL        0.126122
      30 H2          -7.2800    -1.9780    -0.2960 H1            1 MOL        0.126122
      31 H3          -6.3160    -2.6920     0.9930 H1            1 MOL        0.126122
      32 H4          -5.6220    -0.4410    -0.6810 H             1 MOL        0.378204
      33 HB1         -2.2510    -0.0680     2.2460 HC            1 MOL        0.141821
      34 HB2         -3.2500     1.3180     2.5600 HC            1 MOL        0.141821
      35 HB3         -1.8750     1.4630     1.4570 HC            1 MOL        0.141821
      36 HB4         -2.0040     0.5500    -0.8390 HC            1 MOL        0.108153
      37 HB5         -3.3730    -0.3690    -1.3860 HC            1 MOL        0.108153
      38 HC1         -1.2390    -1.3020     0.5720 HC            1 MOL        0.120174
      39 HC2         -2.7260    -2.1750     0.3250 HC            1 MOL        0.120174
      40 HD1         -1.0000    -3.1660    -1.0190 HC            1 MOL        0.020028
      41 HD2         -2.2040    -2.4700    -2.0610 HC            1 MOL        0.020028
      42 HE          -0.7430    -0.6120    -2.6940 HA            1 MOL        0.137270
      43 HF           1.5340    -0.8980    -2.6760 HA            1 MOL        0.137270
      44 HG1          1.1030    -3.3860    -0.9310 HC            1 MOL        0.020028
      45 HG2          2.4210    -3.1190    -2.0320 HC            1 MOL        0.020028
      46 HH1          3.0230    -2.8890     0.3690 HC            1 MOL        0.120174
      47 HH2          1.9330    -1.5410     0.5230 HC            1 MOL        0.120174
      48 HI1          3.2700    -0.2870    -1.1970 HC            1 MOL        0.108153
      49 HI2          4.3650    -1.6300    -1.3210 HC            1 MOL        0.108153
      50 H22          4.7300    -2.3120     1.7010 HC            1 MOL        0.141821
      51 H23          5.9680    -2.1740     0.4520 HC            1 MOL        0.141821
      52 H24          6.0500    -1.2080     1.9310 HC            1 MOL        0.141821
      53 H25          6.5350     0.2000     0.2170 H             1 MOL        0.383300
      54 H26          6.9910     1.6220    -2.4060 HC            1 MOL        0.123307
      55 H27          7.5890     1.8620    -0.7670 HC            1 MOL        0.123307
      56 H28          6.5950     3.0980    -1.5490 HC            1 MOL        0.123307
      57 H29          3.1970     1.6350     0.2200 H             1 MOL        0.378204
      58 H30          1.7530     2.8460     1.5210 H1            1 MOL        0.126122
      59 H31          2.8380     2.4800     2.8610 H1            1 MOL        0.126122
      60 H32          1.4820     1.4210     2.5220 H1            1 MOL        0.126122
      61 H           -4.0110     2.4840     0.7670 H             1 MOL        0.383300
      62 H34         -5.1990     4.0290    -0.2650 HC            1 MOL        0.123307
      63 H35         -6.1670     3.5170    -1.6540 HC            1 MOL        0.123307
      64 H36         -4.4630     3.8790    -1.8570 HC            1 MOL        0.123307
@<TRIPOS>BOND
       1        1        2 1
       2        1       29 1
       3        1       30 1
       4        1       31 1
       5        2        3 1
       6        2       32 1
       7        3        4 2
       8        3        5 1
       9        5        6 1
      10        5        7 1
      11        5       25 1
      12        6       33 1
      13        6       34 1
      14        6       35 1
      15        7        8 1
      16        7       36 1
      17        7       37 1
      18        8        9 1
      19        8       38 1
      20        8       39 1
      21        9       10 1
      22        9       40 1
      23        9       41 1
      24       10       11 2
      25       10       42 1
      26       11       12 1
      27       11       43 1
      28       12       13 1
      29       12       44 1
      30       12       45 1
      31       13       14 1
      32       13       46 1
      33       13       47 1
      34       14       15 1
      35       14       48 1
      36       14       49 1
      37       15       16 1
      38       15       17 1
      39       15       21 1
      40       16       50 1
      41       16       51 1
      42       16       52 1
      43       17       18 1
      44       17       53 1
      45       18       19 1
      46       18       20 2
      47       19       54 1
      48       19       55 1
      49       19       56 1
      50       21       22 2
      51       21       23 1
      52       23       24 1
      53       23       57 1
      54       24       58 1
      55       24       59 1
      56       24       60 1
      57       25       26 1
      58       25       61 1
      59       26       27 1
      60       26       28 2
      61       27       62 1
      62       27       63 1
      63       27       64 1
@<TRIPOS>SUBSTRUCTURE
       1 MOL             1 RESIDUE    0 **** ROOT      0
