@<TRIPOS>MOLECULE
MOL
64 63 1 0 1
SMALL
USER_CHARGES
@<TRIPOS>ATOM
       1 C1           7.1790    -1.6470     2.3620 CT            1 MOL       -0.393275
       2 N1           6.3570    -1.5000     1.1780 N             1 MOL       -0.509819
       3 C            5.6950    -0.3500     0.9270 C             1 MOL        0.707756
       4 O            5.8040     0.6080     1.6410 O             1 MOL       -0.566701
       5 CA           4.7530    -0.3380    -0.3010 CX            1 MOL        0.002864
       6 C1B          5.3320    -1.1230    -1.4940 CU            1 MOL       -0.108534
       7 C2B          3.4290    -0.9870     0.1840 CU            1 MOL        0.082320
       8 CY           2.3290    -1.1190    -0.8750 CU            1 MOL       -0.051372
       9 CD           1.0010    -1.6430    -0.2980 CU            1 MOL        0.043114
      10 CE           0.3640    -0.7180     0.7130 CM            1 MOL       -0.218303
      11 CF          -0.5770     0.1850     0.4900 CM            1 MOL       -0.213851
      12 CG          -1.2500     0.5070    -0.8220 CU            1 MOL        0.101409
      13 CH          -2.7000     0.0020    -0.9310 CU            1 MOL       -0.149164
      14 CI          -3.6340     0.6600     0.0890 CU            1 MOL       -0.395770
      15 CJ          -5.1420     0.3250    -0.0270 CT            1 MOL        0.818290
      16 C14         -5.7890     0.7640    -1.3540 CT            1 MOL       -0.659668
      17 N2          -5.3780    -1.0980     0.2110 N             1 MOL       -0.931231
      18 C15         -5.2990    -2.1250    -0.6640 C             1 MOL        0.907087
      19 C16         -5.8080    -3.4430    -0.1110 CT            1 MOL       -0.347391
      20 O2          -4.8840    -2.0460    -1.7910 O             1 MOL       -0.674391
      21 C17         -5.8750     1.0190     1.1560 C             1 MOL        0.489043
      22 O3          -6.4220     0.3540     2.0010 O             1 MOL       -0.601752
      23 N3          -5.9510     2.3700     1.2570 N             1 MOL       -0.604892
      24 C18         -5.2320     3.4680     0.6420 CT            1 MOL       -0.004708
      25 N            4.4320     1.0310    -0.6710 N             1 MOL       -0.733625
      26 C19          5.2670     2.0840    -0.9480 C             1 MOL        0.889551
      27 C20          6.6930     1.8170    -1.3740 CT            1 MOL       -0.499443
      28 O4           4.8350     3.2020    -0.9200 O             1 MOL       -0.643381
      29 H1           6.5840    -1.5970     3.2660 H1            1 MOL        0.164150
      30 H2           7.9250    -0.8650     2.4040 H1            1 MOL        0.164150
      31 H3           7.6760    -2.6070     2.3190 H1            1 MOL        0.164150
      32 H4           6.2200    -2.2900     0.5960 H             1 MOL        0.348984
      33 HB1          6.3720    -0.8880    -1.6780 HC            1 MOL        0.033352
      34 HB2          5.2600    -2.1940    -1.3360 HC            1 MOL        0.033352
      35 HB3          4.7700    -0.8880    -2.3880 HC            1 MOL        0.033352
      36 HB4          3.6560    -1.9720     0.5800 HC            1 MOL       -0.000510
      37 HB5          3.0710    -0.3960     1.0210 HC            1 MOL       -0.000510
      38 HC1          2.1510    -0.1630    -1.3540 HC            1 MOL        0.046312
      39 HC2          2.6540    -1.8030    -1.6530 HC            1 MOL        0.046312
      40 HD1          0.3210    -1.8260    -1.1220 HC            1 MOL        0.015768
      41 HD2          1.1730    -2.6090     0.1710 HC            1 MOL        0.015768
      42 HE           0.7300    -0.8090     1.7240 HA            1 MOL        0.121801
      43 HF          -0.9100     0.7650     1.3370 HA            1 MOL        0.127431
      44 HG1         -1.2350     1.5870    -0.9610 HC            1 MOL        0.012479
      45 HG2         -0.6830     0.0910    -1.6470 HC            1 MOL        0.012479
      46 HH1         -3.0530     0.2010    -1.9370 HC            1 MOL        0.103130
      47 HH2         -2.7120    -1.0720    -0.8120 HC            1 MOL        0.103130
      48 HI1         -3.3250     0.3800     1.0920 HC            1 MOL        0.105492
      49 HI2         -3.5050     1.7340     0.0140 HC            1 MOL        0.105492
      50 H22         -5.5880     1.8010    -1.5790 HC            1 MOL        0.166640
      51 H23         -6.8640     0.6310    -1.2990 HC            1 MOL        0.166640
      52 H24         -5.4180     0.1600    -2.1650 HC            1 MOL        0.166640
      53 H25         -5.8120    -1.2780     1.0890 H             1 MOL        0.380597
      54 H26         -5.3500    -4.2510    -0.6630 HC            1 MOL        0.092544
      55 H27         -5.6010    -3.5570     0.9470 HC            1 MOL        0.092544
      56 H28         -6.8830    -3.4940    -0.2540 HC            1 MOL        0.092544
      57 H29         -6.4440     2.6120     2.0900 H             1 MOL        0.376295
      58 H30         -5.1080     3.3320    -0.4180 H1            1 MOL        0.060969
      59 H31         -5.8230     4.3640     0.7860 H1            1 MOL        0.060969
      60 H32         -4.2580     3.6290     1.0910 H1            1 MOL        0.060969
      61 H            3.5880     1.3810    -0.2720 H             1 MOL        0.361062
      62 H34          7.2170     1.1670    -0.6860 HC            1 MOL        0.143787
      63 H35          7.2010     2.7680    -1.4190 HC            1 MOL        0.143787
      64 H36          6.7090     1.3650    -2.3600 HC            1 MOL        0.143787
@<TRIPOS>BOND
       1        1        2 1
       2        1       29 1
       3        1       30 1
       4        1       31 1
       5        2        3 1
       6        2       32 1
       7        3        4 2
       8        3        5 1
       9        5        6 1
      10        5        7 1
      11        5       25 1
      12        6       33 1
      13        6       34 1
      14        6       35 1
      15        7        8 1
      16        7       36 1
      17        7       37 1
      18        8        9 1
      19        8       38 1
      20        8       39 1
      21        9       10 1
      22        9       40 1
      23        9       41 1
      24       10       11 2
      25       10       42 1
      26       11       12 1
      27       11       43 1
      28       12       13 1
      29       12       44 1
      30       12       45 1
      31       13       14 1
      32       13       46 1
      33       13       47 1
      34       14       15 1
      35       14       48 1
      36       14       49 1
      37       15       16 1
      38       15       17 1
      39       15       21 1
      40       16       50 1
      41       16       51 1
      42       16       52 1
      43       17       18 1
      44       17       53 1
      45       18       19 1
      46       18       20 2
      47       19       54 1
      48       19       55 1
      49       19       56 1
      50       21       22 2
      51       21       23 1
      52       23       24 1
      53       23       57 1
      54       24       58 1
      55       24       59 1
      56       24       60 1
      57       25       26 1
      58       25       61 1
      59       26       27 1
      60       26       28 2
      61       27       62 1
      62       27       63 1
      63       27       64 1
@<TRIPOS>SUBSTRUCTURE
       1 MOL             1 RESIDUE    0 **** ROOT      0
