@<TRIPOS>MOLECULE
MOL
   64    63     1     0     0
SMALL
resp


@<TRIPOS>ATOM
      1 C1          -7.0680     0.1460     1.7320 CT         1 MOL      -0.190308
      2 N1          -5.9320     0.5320     0.9200 N          1 MOL      -0.600404
      3 C2          -5.4490    -0.3150    -0.0120 C          1 MOL       0.859627
      4 O1          -6.0120    -1.3370    -0.3030 O          1 MOL      -0.621990
      5 C3          -4.1900     0.1100    -0.8120 CT         1 MOL       0.051125
      6 C4          -4.7080     0.5250    -2.1990 CT         1 MOL      -0.361516
      7 C5          -3.3840     1.2550    -0.1600 CT         1 MOL       0.007879
      8 C6          -2.0570     1.5960    -0.8430 CT         1 MOL       0.052768
      9 C7          -1.3430     2.7590    -0.1390 CT         1 MOL       0.100861
     10 C8          -0.0420     3.1090    -0.8130 CM         1 MOL      -0.243408
     11 C9           1.1740     3.1300    -0.2920 CM         1 MOL      -0.243408
     12 C10          1.5790     2.8290     1.1310 CT         1 MOL       0.100861
     13 C11          2.1720     1.4240     1.3400 CT         1 MOL       0.052768
     14 C12          3.4260     1.1660     0.4980 CT         1 MOL       0.007879
     15 C13          4.2120    -0.1110     0.8710 CT         1 MOL       0.051125
     16 C14          4.9400     0.0710     2.2130 CT         1 MOL      -0.361516
     17 N2           3.3270    -1.2610     1.0140 N          1 MOL      -0.839460
     18 C15          2.7090    -1.8190    -0.0640 C          1 MOL       0.898124
     19 C16          2.1450    -3.2020     0.1690 CT         1 MOL      -0.314187
     20 O2           2.6160    -1.2560    -1.1200 O          1 MOL      -0.635870
     21 C17          5.3190    -0.4920    -0.1460 C          1 MOL       0.859627
     22 O3           5.7940    -1.5960    -0.1150 O          1 MOL      -0.621990
     23 N3           5.7900     0.4710    -0.9640 N          1 MOL      -0.600404
     24 C18          6.7900     0.1530    -1.9630 CT         1 MOL      -0.190308
     25 N4          -3.3660    -1.0790    -0.9990 N          1 MOL      -0.839460
     26 C19         -2.9510    -1.8340     0.0540 C          1 MOL       0.898124
     27 C20         -2.4250    -3.2040    -0.3080 CT         1 MOL      -0.314187
     28 O4          -2.9990    -1.4440     1.1890 O          1 MOL      -0.635870
     29 H1          -6.8280    -0.6790     2.3940 H1         1 MOL       0.111662
     30 H2          -7.8860    -0.1540     1.0950 H1         1 MOL       0.111662
     31 H3          -7.3750     0.9990     2.3230 H1         1 MOL       0.111662
     32 H4          -5.3200     1.2180     1.2930 H          1 MOL       0.348577
     33 H5          -5.3180    -0.2630    -2.6220 HC         1 MOL       0.108566
     34 H6          -3.8840     0.7300    -2.8730 HC         1 MOL       0.108566
     35 H7          -5.3170     1.4180    -2.1220 HC         1 MOL       0.108566
     36 H8          -4.0110     2.1450    -0.1580 HC         1 MOL       0.001392
     37 H9          -3.1770     0.9960     0.8700 HC         1 MOL       0.001392
     38 H10         -1.4090     0.7280    -0.8420 HC         1 MOL       0.024689
     39 H11         -2.2190     1.8640    -1.8830 HC         1 MOL       0.024689
     40 H12         -1.9920     3.6340    -0.1510 HC         1 MOL      -0.002721
     41 H13         -1.1850     2.5060     0.9030 HC         1 MOL      -0.002721
     42 H14         -0.1350     3.3580    -1.8600 HA         1 MOL       0.123206
     43 H15          1.9830     3.3930    -0.9540 HA         1 MOL       0.123206
     44 H16          0.7320     2.9420     1.7980 HC         1 MOL      -0.002721
     45 H17          2.3110     3.5710     1.4450 HC         1 MOL      -0.002721
     46 H18          2.3940     1.3110     2.3970 HC         1 MOL       0.024689
     47 H19          1.4210     0.6820     1.0980 HC         1 MOL       0.024689
     48 H20          4.1020     2.0130     0.6080 HC         1 MOL       0.001392
     49 H21          3.1310     1.1110    -0.5410 HC         1 MOL       0.001392
     50 H22          5.5160    -0.8160     2.4510 HC         1 MOL       0.108566
     51 H23          4.2350     0.2530     3.0150 HC         1 MOL       0.108566
     52 H24          5.6240     0.9100     2.1610 HC         1 MOL       0.108566
     53 H25          3.5870    -1.9010     1.7310 H          1 MOL       0.406030
     54 H26          1.4230    -3.4230    -0.6030 HC         1 MOL       0.083847
     55 H27          2.9530    -3.9240     0.1080 HC         1 MOL       0.083847
     56 H28          1.6800    -3.2900     1.1440 HC         1 MOL       0.083847
     57 H29          5.2310     1.2750    -1.1190 H          1 MOL       0.348577
     58 H30          6.3970    -0.5040    -2.7310 H1         1 MOL       0.111662
     59 H31          7.1250     1.0750    -2.4210 H1         1 MOL       0.111662
     60 H32          7.6320    -0.3330    -1.4950 H1         1 MOL       0.111662
     61 H33         -3.5250    -1.5760    -1.8470 H          1 MOL       0.406030
     62 H34         -1.8390    -3.1850    -1.2200 HC         1 MOL       0.083847
     63 H35         -3.2670    -3.8740    -0.4550 HC         1 MOL       0.083847
     64 H36         -1.8230    -3.5770     0.5080 HC         1 MOL       0.083847
@<TRIPOS>BOND
     1     1     2 1   
     2     1    29 1   
     3     1    30 1   
     4     1    31 1   
     5     2     3 1   
     6     2    32 1   
     7     3     4 2   
     8     3     5 1   
     9     5     6 1   
    10     5     7 1   
    11     5    25 1   
    12     6    33 1   
    13     6    34 1   
    14     6    35 1   
    15     7     8 1   
    16     7    36 1   
    17     7    37 1   
    18     8     9 1   
    19     8    38 1   
    20     8    39 1   
    21     9    10 1   
    22     9    40 1   
    23     9    41 1   
    24    10    11 2   
    25    10    42 1   
    26    11    12 1   
    27    11    43 1   
    28    12    13 1   
    29    12    44 1   
    30    12    45 1   
    31    13    14 1   
    32    13    46 1   
    33    13    47 1   
    34    14    15 1   
    35    14    48 1   
    36    14    49 1   
    37    15    16 1   
    38    15    17 1   
    39    15    21 1   
    40    16    50 1   
    41    16    51 1   
    42    16    52 1   
    43    17    18 1   
    44    17    53 1   
    45    18    19 1   
    46    18    20 2   
    47    19    54 1   
    48    19    55 1   
    49    19    56 1   
    50    21    22 2   
    51    21    23 1   
    52    23    24 1   
    53    23    57 1   
    54    24    58 1   
    55    24    59 1   
    56    24    60 1   
    57    25    26 1   
    58    25    61 1   
    59    26    27 1   
    60    26    28 2   
    61    27    62 1   
    62    27    63 1   
    63    27    64 1   
@<TRIPOS>SUBSTRUCTURE
     1 MOL         1 TEMP              0 ****  ****    0 ROOT
