@<TRIPOS>MOLECULE
MOL
64 63 1 0 1
SMALL
USER_CHARGES
@<TRIPOS>ATOM
       1 C1          -8.0060    -0.1390     0.7110 CT            1 MOL       -0.282220
       2 N1          -6.8330    -0.0640    -0.1360 N             1 MOL       -0.591640
       3 C           -5.6010    -0.1480     0.4080 C             1 MOL        0.813879
       4 O           -5.4200    -0.1380     1.5960 O             1 MOL       -0.614067
       5 CA          -4.3820    -0.1400    -0.5460 CX            1 MOL        0.031988
       6 C1B         -4.7150    -0.4500    -2.0110 CU            1 MOL       -0.217136
       7 C2B         -3.7690     1.2730    -0.4010 CU            1 MOL       -0.045210
       8 CY          -2.5250     1.5520    -1.2530 CU            1 MOL        0.055724
       9 CD          -1.8630     2.9040    -0.9280 CU            1 MOL        0.117874
      10 CE          -1.2790     2.9850     0.4620 CM            1 MOL       -0.254633
      11 CF          -0.0080     2.8670     0.8150 CM            1 MOL       -0.254633
      12 CG           1.1910     2.6200    -0.0620 CU            1 MOL        0.117874
      13 CH           1.9220     1.3230     0.3160 CU            1 MOL        0.055724
      14 CI           3.1560     1.1010    -0.5620 CU            1 MOL       -0.045210
      15 CJ           4.0700    -0.0810    -0.1800 CT            1 MOL        0.031988
      16 C14          3.2610    -1.3830    -0.0950 CT            1 MOL       -0.217136
      17 N2           5.0710    -0.1520    -1.2620 N             1 MOL       -0.657187
      18 C15          5.9870    -1.1150    -1.4970 C             1 MOL        0.844793
      19 C16          6.8870    -0.8760    -2.6920 CT            1 MOL       -0.417408
      20 O2           6.1270    -2.1000    -0.8140 O             1 MOL       -0.624358
      21 C17          4.7990     0.2430     1.1500 C             1 MOL        0.813879
      22 O3           4.7210     1.3330     1.6560 O             1 MOL       -0.614067
      23 N3           5.5090    -0.7580     1.7000 N             1 MOL       -0.591640
      24 C18          6.3150    -0.5220     2.8790 CT            1 MOL       -0.282220
      25 N           -3.4120    -1.1050    -0.0350 N             1 MOL       -0.657187
      26 C19         -3.7590    -2.4020     0.1970 C             1 MOL        0.844793
      27 C20         -2.7850    -3.1840     1.0490 CT            1 MOL       -0.417408
      28 O4          -4.7650    -2.8920    -0.2380 O             1 MOL       -0.624358
      29 H1          -7.9320     0.5940     1.5000 H1            1 MOL        0.135780
      30 H2          -8.1160    -1.1190     1.1610 H1            1 MOL        0.135780
      31 H3          -8.8800     0.0770     0.1100 H1            1 MOL        0.135780
      32 H4          -6.9430    -0.3360    -1.0840 H             1 MOL        0.377344
      33 HB1         -5.2450    -1.3870    -2.1060 HC            1 MOL        0.067147
      34 HB2         -5.3060     0.3480    -2.4510 HC            1 MOL        0.067147
      35 HB3         -3.7990    -0.5360    -2.5790 HC            1 MOL        0.067147
      36 HB4         -3.5460     1.4180     0.6500 HC            1 MOL        0.018234
      37 HB5         -4.5390     1.9970    -0.6520 HC            1 MOL        0.018234
      38 HC1         -2.7960     1.5530    -2.3040 HC            1 MOL        0.003090
      39 HC2         -1.7910     0.7630    -1.1220 HC            1 MOL        0.003090
      40 HD1         -1.0980     3.0960    -1.6720 HC            1 MOL       -0.000139
      41 HD2         -2.6010     3.6960    -1.0430 HC            1 MOL       -0.000139
      42 HE          -1.9900     3.1580     1.2530 HA            1 MOL        0.136565
      43 HF           0.2210     2.9520     1.8660 HA            1 MOL        0.136565
      44 HG1          1.8830     3.4530     0.0520 HC            1 MOL       -0.000139
      45 HG2          0.9110     2.5880    -1.1090 HC            1 MOL       -0.000139
      46 HH1          2.2160     1.3710     1.3570 HC            1 MOL        0.003090
      47 HH2          1.2300     0.4930     0.2110 HC            1 MOL        0.003090
      48 HI1          2.8300     0.9320    -1.5860 HC            1 MOL        0.018234
      49 HI2          3.7560     2.0050    -0.5540 HC            1 MOL        0.018234
      50 H22          3.8910    -2.2510     0.0060 HC            1 MOL        0.067147
      51 H23          2.5880    -1.3490     0.7530 HC            1 MOL        0.067147
      52 H24          2.6700    -1.4980    -0.9980 HC            1 MOL        0.067147
      53 H25          5.1120     0.6480    -1.8510 H             1 MOL        0.334579
      54 H26          6.4750    -0.1730    -3.4070 HC            1 MOL        0.113320
      55 H27          7.8380    -0.4940    -2.3360 HC            1 MOL        0.113320
      56 H28          7.0690    -1.8230    -3.1790 HC            1 MOL        0.113320
      57 H29          5.7260    -1.5460     1.1290 H             1 MOL        0.377344
      58 H30          7.1340     0.1610     2.6810 H1            1 MOL        0.135780
      59 H31          5.7070    -0.1010     3.6670 H1            1 MOL        0.135780
      60 H32          6.7180    -1.4690     3.2130 H1            1 MOL        0.135780
      61 H           -2.7420    -0.7290     0.5990 H             1 MOL        0.334579
      62 H34         -2.9990    -2.9830     2.0940 HC            1 MOL        0.113320
      63 H35         -2.9230    -4.2390     0.8650 HC            1 MOL        0.113320
      64 H36         -1.7560    -2.9070     0.8510 HC            1 MOL        0.113320
@<TRIPOS>BOND
       1        1        2 1
       2        1       29 1
       3        1       30 1
       4        1       31 1
       5        2        3 1
       6        2       32 1
       7        3        4 2
       8        3        5 1
       9        5        6 1
      10        5        7 1
      11        5       25 1
      12        6       33 1
      13        6       34 1
      14        6       35 1
      15        7        8 1
      16        7       36 1
      17        7       37 1
      18        8        9 1
      19        8       38 1
      20        8       39 1
      21        9       10 1
      22        9       40 1
      23        9       41 1
      24       10       11 2
      25       10       42 1
      26       11       12 1
      27       11       43 1
      28       12       13 1
      29       12       44 1
      30       12       45 1
      31       13       14 1
      32       13       46 1
      33       13       47 1
      34       14       15 1
      35       14       48 1
      36       14       49 1
      37       15       16 1
      38       15       17 1
      39       15       21 1
      40       16       50 1
      41       16       51 1
      42       16       52 1
      43       17       18 1
      44       17       53 1
      45       18       19 1
      46       18       20 2
      47       19       54 1
      48       19       55 1
      49       19       56 1
      50       21       22 2
      51       21       23 1
      52       23       24 1
      53       23       57 1
      54       24       58 1
      55       24       59 1
      56       24       60 1
      57       25       26 1
      58       25       61 1
      59       26       27 1
      60       26       28 2
      61       27       62 1
      62       27       63 1
      63       27       64 1
@<TRIPOS>SUBSTRUCTURE
       1 MOL             1 RESIDUE    0 **** ROOT      0
