@<TRIPOS>MOLECULE
MOL
64 63 1 0 1
SMALL
USER_CHARGES
@<TRIPOS>ATOM
       1 C1           6.0510     2.6780    -1.9160 CT            1 MOL       -0.363646
       2 N1           5.3480     2.0040    -0.8430 N             1 MOL       -0.628585
       3 C            5.9730     1.0400    -0.1340 C             1 MOL        0.874452
       4 O            7.1500     0.8270    -0.2390 O             1 MOL       -0.627475
       5 CA           5.1660     0.2920     0.9570 CX            1 MOL        0.014310
       6 C1B          5.7390     0.8110     2.2890 CU            1 MOL       -0.146703
       7 C2B          3.6380     0.5270     0.9880 CU            1 MOL       -0.095675
       8 CY           2.7570    -0.0830    -0.1080 CU            1 MOL       -0.013704
       9 CD           1.2840     0.3070     0.0880 CU            1 MOL        0.098669
      10 CE           0.3960    -0.2690    -0.9840 CM            1 MOL       -0.247661
      11 CF          -0.6180    -1.1080    -0.8460 CM            1 MOL       -0.247661
      12 CG          -1.1560    -1.7000     0.4350 CU            1 MOL        0.098669
      13 CH          -2.4010    -0.9810     0.9850 CU            1 MOL       -0.013704
      14 CI          -3.6190    -1.1020     0.0620 CU            1 MOL       -0.095675
      15 CJ          -4.8580    -0.2690     0.4670 CT            1 MOL        0.014310
      16 C14         -5.3030    -0.5980     1.8980 CT            1 MOL       -0.146703
      17 N2          -4.5030     1.1440     0.3630 N             1 MOL       -0.692006
      18 C15         -5.4530     2.1190     0.4170 C             1 MOL        0.837200
      19 C16         -5.0020     3.4810    -0.0580 CT            1 MOL       -0.364618
      20 O2          -6.5700     1.9160     0.8080 O             1 MOL       -0.619069
      21 C17         -5.9170    -0.5690    -0.6220 C             1 MOL        0.874452
      22 O3          -5.7550    -0.1430    -1.7350 O             1 MOL       -0.627475
      23 N3          -6.9390    -1.3890    -0.3040 N             1 MOL       -0.628585
      24 C18         -7.9920    -1.6440    -1.2670 CT            1 MOL       -0.363646
      25 N            5.4940    -1.1290     0.8850 N             1 MOL       -0.692006
      26 C19          5.6220    -1.7980    -0.2950 C             1 MOL        0.837200
      27 C20          6.3170    -3.1370    -0.2010 CT            1 MOL       -0.364618
      28 O4           5.2180    -1.3590    -1.3350 O             1 MOL       -0.619069
      29 H1           6.9750     3.0920    -1.5410 H1            1 MOL        0.161756
      30 H2           5.4280     3.4820    -2.2850 H1            1 MOL        0.161756
      31 H3           6.2830     2.0020    -2.7310 H1            1 MOL        0.161756
      32 H4           4.3590     1.9680    -0.9080 H             1 MOL        0.388013
      33 HB1          5.2960     0.2750     3.1230 HC            1 MOL        0.053642
      34 HB2          6.8140     0.6850     2.3120 HC            1 MOL        0.053642
      35 HB3          5.5170     1.8650     2.4130 HC            1 MOL        0.053642
      36 HB4          3.2960     0.1280     1.9390 HC            1 MOL        0.034792
      37 HB5          3.4650     1.5990     1.0450 HC            1 MOL        0.034792
      38 HC1          2.8430    -1.1610    -0.0880 HC            1 MOL        0.028962
      39 HC2          3.0840     0.2160    -1.0970 HC            1 MOL        0.028962
      40 HD1          1.1960     1.3930     0.0640 HC            1 MOL        0.010455
      41 HD2          0.9520     0.0010     1.0750 HC            1 MOL        0.010455
      42 HE           0.6420     0.0480    -1.9860 HA            1 MOL        0.134643
      43 HF          -1.1290    -1.4090    -1.7460 HA            1 MOL        0.134643
      44 HG1         -1.4000    -2.7460     0.2590 HC            1 MOL        0.010455
      45 HG2         -0.3920    -1.6950     1.2030 HC            1 MOL        0.010455
      46 HH1         -2.1570     0.0630     1.1540 HC            1 MOL        0.028962
      47 HH2         -2.6350    -1.4060     1.9560 HC            1 MOL        0.028962
      48 HI1         -3.3550    -0.8120    -0.9480 HC            1 MOL        0.034792
      49 HI2         -3.9220    -2.1450     0.0110 HC            1 MOL        0.034792
      50 H22         -4.5540    -0.2530     2.5970 HC            1 MOL        0.053642
      51 H23         -5.4140    -1.6700     2.0310 HC            1 MOL        0.053642
      52 H24         -6.2320    -0.1050     2.1460 HC            1 MOL        0.053642
      53 H25         -3.7330     1.3390    -0.2390 H             1 MOL        0.361962
      54 H26         -5.0850     3.5180    -1.1400 HC            1 MOL        0.098427
      55 H27         -5.6510     4.2350     0.3640 HC            1 MOL        0.098427
      56 H28         -3.9730     3.6870     0.2130 HC            1 MOL        0.098427
      57 H29         -7.1710    -1.4940     0.6550 H             1 MOL        0.388013
      58 H30         -8.5800    -0.7550    -1.4670 H1            1 MOL        0.161756
      59 H31         -7.5590    -1.9840    -2.1960 H1            1 MOL        0.161756
      60 H32         -8.6390    -2.4180    -0.8750 H1            1 MOL        0.161756
      61 H            6.0440    -1.4770     1.6370 H             1 MOL        0.361962
      62 H34          6.0850    -3.6580     0.7210 HC            1 MOL        0.098427
      63 H35          7.3900    -2.9750    -0.2440 HC            1 MOL        0.098427
      64 H36          6.0270    -3.7440    -1.0470 HC            1 MOL        0.098427
@<TRIPOS>BOND
       1        1        2 1
       2        1       29 1
       3        1       30 1
       4        1       31 1
       5        2        3 1
       6        2       32 1
       7        3        4 2
       8        3        5 1
       9        5        6 1
      10        5        7 1
      11        5       25 1
      12        6       33 1
      13        6       34 1
      14        6       35 1
      15        7        8 1
      16        7       36 1
      17        7       37 1
      18        8        9 1
      19        8       38 1
      20        8       39 1
      21        9       10 1
      22        9       40 1
      23        9       41 1
      24       10       11 2
      25       10       42 1
      26       11       12 1
      27       11       43 1
      28       12       13 1
      29       12       44 1
      30       12       45 1
      31       13       14 1
      32       13       46 1
      33       13       47 1
      34       14       15 1
      35       14       48 1
      36       14       49 1
      37       15       16 1
      38       15       17 1
      39       15       21 1
      40       16       50 1
      41       16       51 1
      42       16       52 1
      43       17       18 1
      44       17       53 1
      45       18       19 1
      46       18       20 2
      47       19       54 1
      48       19       55 1
      49       19       56 1
      50       21       22 2
      51       21       23 1
      52       23       24 1
      53       23       57 1
      54       24       58 1
      55       24       59 1
      56       24       60 1
      57       25       26 1
      58       25       61 1
      59       26       27 1
      60       26       28 2
      61       27       62 1
      62       27       63 1
      63       27       64 1
@<TRIPOS>SUBSTRUCTURE
       1 MOL             1 RESIDUE    0 **** ROOT      0
