@<TRIPOS>MOLECULE
MOL
   64    63     1     0     0
SMALL
resp


@<TRIPOS>ATOM
      1 C1           6.2270     3.8320    -0.3090 CT         1 MOL      -0.397285
      2 N1           5.4990     2.6380     0.0700 N          1 MOL      -0.596350
      3 C2           5.9220     1.4170    -0.2980 C          1 MOL       0.838631
      4 O1           6.9260     1.2710    -0.9490 O          1 MOL      -0.626513
      5 C3           5.0390     0.2130     0.1180 CT         1 MOL       0.070829
      6 C4           4.7500     0.2920     1.6280 CT         1 MOL      -0.391617
      7 C5           3.7790     0.2990    -0.7910 CT         1 MOL      -0.055120
      8 C6           2.7920    -0.8770    -0.8470 CT         1 MOL      -0.041737
      9 C7           1.8460    -1.0890     0.3490 CT         1 MOL       0.107499
     10 C8           1.0000     0.1150     0.6910 CM         1 MOL      -0.266246
     11 C9          -0.2450     0.3700     0.3190 CM         1 MOL      -0.266246
     12 C10         -1.1410    -0.4850    -0.5430 CT         1 MOL       0.107499
     13 C11         -2.3560    -1.0540     0.2140 CT         1 MOL      -0.041737
     14 C12         -3.4130    -0.0130     0.6500 CT         1 MOL      -0.055120
     15 C13         -4.7170     0.0180    -0.1830 CT         1 MOL       0.070829
     16 C14         -4.4240     0.2980    -1.6620 CT         1 MOL      -0.391617
     17 N2          -5.3730    -1.2790    -0.0400 N          1 MOL      -0.622689
     18 C15         -6.6590    -1.4750    -0.4460 C          1 MOL       0.861800
     19 C16         -7.3110    -2.7360     0.0730 CT         1 MOL      -0.366162
     20 O2          -7.2380    -0.7020    -1.1600 O          1 MOL      -0.643010
     21 C17         -5.6140     1.0750     0.5070 C          1 MOL       0.838631
     22 O3          -6.0550     0.8490     1.6030 O          1 MOL      -0.626513
     23 N3          -5.7910     2.2620    -0.1110 N          1 MOL      -0.596350
     24 C18         -6.6890     3.2460     0.4580 CT         1 MOL      -0.397285
     25 N4           5.8600    -0.9480    -0.2040 N          1 MOL      -0.622689
     26 C19          5.7270    -2.2170     0.2370 C          1 MOL       0.861800
     27 C20          6.8500    -3.1450    -0.1840 CT         1 MOL      -0.366162
     28 O4           4.8230    -2.6150     0.9250 O          1 MOL      -0.643010
     29 H1           5.7060     4.6920     0.0880 H1         1 MOL       0.171123
     30 H2           7.2330     3.8130     0.0890 H1         1 MOL       0.171123
     31 H3           6.2880     3.9210    -1.3860 H1         1 MOL       0.171123
     32 H4           4.6750     2.7350     0.6140 H          1 MOL       0.379713
     33 H5           5.6730     0.4590     2.1740 HC         1 MOL       0.112445
     34 H6           4.3150    -0.6260     1.9820 HC         1 MOL       0.112445
     35 H7           4.0690     1.1040     1.8580 HC         1 MOL       0.112445
     36 H8           4.1520     0.4400    -1.8020 HC         1 MOL       0.024507
     37 H9           3.2370     1.2070    -0.5450 HC         1 MOL       0.024507
     38 H10          3.3310    -1.7980    -1.0250 HC         1 MOL       0.023271
     39 H11          2.1750    -0.7050    -1.7260 HC         1 MOL       0.023271
     40 H12          2.4150    -1.3880     1.2180 HC         1 MOL       0.027423
     41 H13          1.2110    -1.9350     0.1100 HC         1 MOL       0.027423
     42 H14          1.4770     0.8520     1.3180 HA         1 MOL       0.139395
     43 H15         -0.6830     1.2910     0.6700 HA         1 MOL       0.139395
     44 H16         -0.5790    -1.3120    -0.9610 HC         1 MOL       0.027423
     45 H17         -1.4830     0.1070    -1.3880 HC         1 MOL       0.027423
     46 H18         -1.9850    -1.5670     1.0960 HC         1 MOL       0.023271
     47 H19         -2.8230    -1.8150    -0.4020 HC         1 MOL       0.023271
     48 H20         -2.9910     0.9860     0.6260 HC         1 MOL       0.024507
     49 H21         -3.7010    -0.1860     1.6800 HC         1 MOL       0.024507
     50 H22         -5.3350     0.3730    -2.2370 HC         1 MOL       0.112445
     51 H23         -3.8420    -0.5150    -2.0760 HC         1 MOL       0.112445
     52 H24         -3.8480     1.2110    -1.7770 HC         1 MOL       0.112445
     53 H25         -5.0990    -1.8030     0.7620 H          1 MOL       0.318644
     54 H26         -8.1350    -2.9990    -0.5750 HC         1 MOL       0.096371
     55 H27         -6.6120    -3.5620     0.1320 HC         1 MOL       0.096371
     56 H28         -7.7000    -2.5430     1.0680 HC         1 MOL       0.096371
     57 H29         -5.6560     2.2950    -1.0940 H          1 MOL       0.379713
     58 H30         -6.6010     4.1630    -0.1090 H1         1 MOL       0.171123
     59 H31         -7.7200     2.9110     0.4380 H1         1 MOL       0.171123
     60 H32         -6.4120     3.4390     1.4840 H1         1 MOL       0.171123
     61 H33          6.6620    -0.7240    -0.7510 H          1 MOL       0.318644
     62 H34          7.6180    -3.1340     0.5830 HC         1 MOL       0.096371
     63 H35          7.3050    -2.8580    -1.1250 HC         1 MOL       0.096371
     64 H36          6.4600    -4.1500    -0.2590 HC         1 MOL       0.096371
@<TRIPOS>BOND
     1     1     2 1   
     2     1    29 1   
     3     1    30 1   
     4     1    31 1   
     5     2     3 1   
     6     2    32 1   
     7     3     4 2   
     8     3     5 1   
     9     5     6 1   
    10     5     7 1   
    11     5    25 1   
    12     6    33 1   
    13     6    34 1   
    14     6    35 1   
    15     7     8 1   
    16     7    36 1   
    17     7    37 1   
    18     8     9 1   
    19     8    38 1   
    20     8    39 1   
    21     9    10 1   
    22     9    40 1   
    23     9    41 1   
    24    10    11 2   
    25    10    42 1   
    26    11    12 1   
    27    11    43 1   
    28    12    13 1   
    29    12    44 1   
    30    12    45 1   
    31    13    14 1   
    32    13    46 1   
    33    13    47 1   
    34    14    15 1   
    35    14    48 1   
    36    14    49 1   
    37    15    16 1   
    38    15    17 1   
    39    15    21 1   
    40    16    50 1   
    41    16    51 1   
    42    16    52 1   
    43    17    18 1   
    44    17    53 1   
    45    18    19 1   
    46    18    20 2   
    47    19    54 1   
    48    19    55 1   
    49    19    56 1   
    50    21    22 2   
    51    21    23 1   
    52    23    24 1   
    53    23    57 1   
    54    24    58 1   
    55    24    59 1   
    56    24    60 1   
    57    25    26 1   
    58    25    61 1   
    59    26    27 1   
    60    26    28 2   
    61    27    62 1   
    62    27    63 1   
    63    27    64 1   
@<TRIPOS>SUBSTRUCTURE
     1 MOL         1 TEMP              0 ****  ****    0 ROOT
