@<TRIPOS>MOLECULE
MOL
64 63 1 0 1
SMALL
USER_CHARGES
@<TRIPOS>ATOM
       1 C1           6.5250    -3.2950     0.4080 CT            1 MOL       -0.462378
       2 N1           5.8810    -2.1620    -0.2250 N             1 MOL       -0.532481
       3 C            5.6050    -1.0410     0.4630 C             1 MOL        0.768206
       4 O            5.8710    -0.9390     1.6350 O             1 MOL       -0.583075
       5 CA           4.9390     0.1070    -0.3240 CX            1 MOL        0.187417
       6 C1B          5.8880     0.5630    -1.4480 CU            1 MOL       -0.371120
       7 C2B          3.5830    -0.3510    -0.9130 CU            1 MOL       -0.344489
       8 CY           2.5800    -0.8830     0.1150 CU            1 MOL       -0.215462
       9 CD           1.2860    -1.4270    -0.5130 CU            1 MOL        0.053470
      10 CE           0.4590    -0.3890    -1.2290 CM            1 MOL       -0.204689
      11 CF          -0.7200     0.0940    -0.8700 CM            1 MOL       -0.204689
      12 CG          -1.5300    -0.2710     0.3520 CU            1 MOL        0.053470
      13 CH          -2.6480    -1.2990     0.0880 CU            1 MOL       -0.215462
      14 CI          -3.6830    -0.9670    -0.9980 CU            1 MOL       -0.344489
      15 CJ          -4.8390     0.0070    -0.6550 CT            1 MOL        0.187417
      16 C14         -5.8280     0.0290    -1.8330 CT            1 MOL       -0.371120
      17 N2          -5.5510    -0.3440     0.5840 N             1 MOL       -0.686109
      18 C15         -6.0620    -1.5800     0.8770 C             1 MOL        0.909978
      19 C16         -7.0620    -1.5820     2.0170 CT            1 MOL       -0.415350
      20 O2          -5.7610    -2.5880     0.3060 O             1 MOL       -0.641904
      21 C17         -4.2660     1.4300    -0.5100 C             1 MOL        0.768206
      22 O3          -3.8690     2.0170    -1.4800 O             1 MOL       -0.583075
      23 N3          -4.2590     1.9930     0.7240 N             1 MOL       -0.532481
      24 C18         -3.6180     3.2780     0.9250 CT            1 MOL       -0.462378
      25 N            4.7650     1.1720     0.6500 N             1 MOL       -0.686109
      26 C19          4.2430     2.3910     0.4060 C             1 MOL        0.909978
      27 C20          4.1610     3.3110     1.6070 CT            1 MOL       -0.415350
      28 O4           3.8470     2.7510    -0.6740 O             1 MOL       -0.641904
      29 H1           5.9370    -3.6550     1.2420 H1            1 MOL        0.186801
      30 H2           7.5090    -3.0290     0.7740 H1            1 MOL        0.186801
      31 H3           6.6230    -4.0860    -0.3230 H1            1 MOL        0.186801
      32 H4           5.6680    -2.2130    -1.1920 H             1 MOL        0.335538
      33 HB1          6.0300    -0.2130    -2.1920 HC            1 MOL        0.109737
      34 HB2          6.8590     0.8240    -1.0400 HC            1 MOL        0.109737
      35 HB3          5.4740     1.4310    -1.9390 HC            1 MOL        0.109737
      36 HB4          3.1670     0.4970    -1.4390 HC            1 MOL        0.154660
      37 HB5          3.7700    -1.1190    -1.6600 HC            1 MOL        0.154660
      38 HC1          2.3290    -0.0960     0.8180 HC            1 MOL        0.105641
      39 HC2          3.0350    -1.6830     0.6930 HC            1 MOL        0.105641
      40 HD1          1.5430    -2.2150    -1.2210 HC            1 MOL        0.025173
      41 HD2          0.7020    -1.9050     0.2650 HC            1 MOL        0.025173
      42 HE           0.8880    -0.0040    -2.1400 HA            1 MOL        0.129743
      43 HF          -1.1700     0.8330    -1.5120 HA            1 MOL        0.129743
      44 HG1         -0.8870    -0.6780     1.1240 HC            1 MOL        0.025173
      45 HG2         -1.9450     0.6410     0.7680 HC            1 MOL        0.025173
      46 HH1         -3.1540    -1.5190     1.0220 HC            1 MOL        0.105641
      47 HH2         -2.1690    -2.2250    -0.2160 HC            1 MOL        0.105641
      48 HI1         -4.1410    -1.8930    -1.3070 HC            1 MOL        0.154660
      49 HI2         -3.1890    -0.5510    -1.8670 HC            1 MOL        0.154660
      50 H22         -6.2590    -0.9570    -1.9590 HC            1 MOL        0.109737
      51 H23         -6.6310     0.7370    -1.6490 HC            1 MOL        0.109737
      52 H24         -5.3290     0.3190    -2.7460 HC            1 MOL        0.109737
      53 H25         -6.0990     0.4050     0.9490 H             1 MOL        0.287394
      54 H26         -8.0330    -1.2710     1.6440 HC            1 MOL        0.108250
      55 H27         -6.7730    -0.9060     2.8140 HC            1 MOL        0.108250
      56 H28         -7.1480    -2.5860     2.4040 HC            1 MOL        0.108250
      57 H29         -4.3010     1.3760     1.5030 H             1 MOL        0.335538
      58 H30         -4.0180     3.9950     0.2240 H1            1 MOL        0.186801
      59 H31         -3.8270     3.6140     1.9330 H1            1 MOL        0.186801
      60 H32         -2.5440     3.2250     0.7820 H1            1 MOL        0.186801
      61 H            5.0790     0.9500     1.5680 H             1 MOL        0.287394
      62 H34          4.5610     4.2780     1.3280 HC            1 MOL        0.108250
      63 H35          3.1160     3.4480     1.8630 HC            1 MOL        0.108250
      64 H36          4.6900     2.9390     2.4760 HC            1 MOL        0.108250
@<TRIPOS>BOND
       1        1        2 1
       2        1       29 1
       3        1       30 1
       4        1       31 1
       5        2        3 1
       6        2       32 1
       7        3        4 2
       8        3        5 1
       9        5        6 1
      10        5        7 1
      11        5       25 1
      12        6       33 1
      13        6       34 1
      14        6       35 1
      15        7        8 1
      16        7       36 1
      17        7       37 1
      18        8        9 1
      19        8       38 1
      20        8       39 1
      21        9       10 1
      22        9       40 1
      23        9       41 1
      24       10       11 2
      25       10       42 1
      26       11       12 1
      27       11       43 1
      28       12       13 1
      29       12       44 1
      30       12       45 1
      31       13       14 1
      32       13       46 1
      33       13       47 1
      34       14       15 1
      35       14       48 1
      36       14       49 1
      37       15       16 1
      38       15       17 1
      39       15       21 1
      40       16       50 1
      41       16       51 1
      42       16       52 1
      43       17       18 1
      44       17       53 1
      45       18       19 1
      46       18       20 2
      47       19       54 1
      48       19       55 1
      49       19       56 1
      50       21       22 2
      51       21       23 1
      52       23       24 1
      53       23       57 1
      54       24       58 1
      55       24       59 1
      56       24       60 1
      57       25       26 1
      58       25       61 1
      59       26       27 1
      60       26       28 2
      61       27       62 1
      62       27       63 1
      63       27       64 1
@<TRIPOS>SUBSTRUCTURE
       1 MOL             1 RESIDUE    0 **** ROOT      0
