@<TRIPOS>MOLECULE
MOL
   64    63     1     0     0
SMALL
resp


@<TRIPOS>ATOM
      1 C1          -6.5590     3.7520     0.0730 CT         1 MOL      -0.456535
      2 N1          -5.9470     2.5460    -0.4470 N          1 MOL      -0.663730
      3 C2          -5.8750     1.4280     0.2930 C          1 MOL       0.898482
      4 O1          -6.3110     1.3880     1.4160 O          1 MOL      -0.635287
      5 C3          -5.1580     0.2070    -0.3370 CT         1 MOL       0.075190
      6 C4          -5.6480    -0.0230    -1.7770 CT         1 MOL      -0.298876
      7 C5          -3.6420     0.5270    -0.2640 CT         1 MOL      -0.052899
      8 C6          -2.6780    -0.5470    -0.7750 CT         1 MOL      -0.057094
      9 C7          -1.2200    -0.0730    -0.6780 CT         1 MOL       0.199641
     10 C8          -0.2540    -1.0910    -1.2240 CM         1 MOL      -0.238060
     11 C9           0.7370    -1.7020    -0.5970 CM         1 MOL      -0.238060
     12 C10          1.1610    -1.5370     0.8420 CT         1 MOL       0.199641
     13 C11          2.3880    -0.6300     1.0440 CT         1 MOL      -0.057094
     14 C12          3.6490    -1.1640     0.3580 CT         1 MOL      -0.052899
     15 C13          4.9390    -0.3430     0.5820 CT         1 MOL       0.075190
     16 C14          5.3460    -0.3510     2.0610 CT         1 MOL      -0.298876
     17 N2           5.9810    -1.0070    -0.2030 N          1 MOL      -0.714746
     18 C15          7.1830    -0.4250    -0.4490 C          1 MOL       0.897390
     19 C16          8.0260    -1.1030    -1.5060 CT         1 MOL      -0.322881
     20 O2           7.5530     0.5650     0.1250 O          1 MOL      -0.653628
     21 C17          4.7090     1.0570    -0.0370 C          1 MOL       0.898482
     22 O3           4.4440     1.1450    -1.2060 O          1 MOL      -0.635287
     23 N3           4.7430     2.1300     0.7830 N          1 MOL      -0.663730
     24 C18          4.6650     3.4630     0.2190 CT         1 MOL      -0.456535
     25 N4          -5.5230    -0.9010     0.5370 N          1 MOL      -0.714746
     26 C19         -5.4620    -2.2290     0.2930 C          1 MOL       0.897390
     27 C20         -6.0460    -3.0890     1.3970 CT         1 MOL      -0.322881
     28 O4          -5.0150    -2.7270    -0.7080 O          1 MOL      -0.653628
     29 H1          -6.0590     4.0760     0.9760 H1         1 MOL       0.190024
     30 H2          -7.6050     3.5910     0.3020 H1         1 MOL       0.190024
     31 H3          -6.4760     4.5290    -0.6750 H1         1 MOL       0.190024
     32 H4          -5.6170     2.5450    -1.3820 H          1 MOL       0.402618
     33 H5          -5.2770    -0.9600    -2.1540 HC         1 MOL       0.090095
     34 H6          -5.3040     0.7660    -2.4390 HC         1 MOL       0.090095
     35 H7          -6.7320    -0.0490    -1.8090 HC         1 MOL       0.090095
     36 H8          -3.4640     1.4460    -0.8190 HC         1 MOL       0.029941
     37 H9          -3.4090     0.7480     0.7740 HC         1 MOL       0.029941
     38 H10         -2.7970    -1.4610    -0.2090 HC         1 MOL       0.032739
     39 H11         -2.9050    -0.7970    -1.8060 HC         1 MOL       0.032739
     40 H12         -1.1060     0.8490    -1.2470 HC         1 MOL      -0.027068
     41 H13         -0.9840     0.1750     0.3510 HC         1 MOL      -0.027068
     42 H14         -0.4090    -1.3400    -2.2630 HA         1 MOL       0.125602
     43 H15          1.3210    -2.4030    -1.1720 HA         1 MOL       0.125602
     44 H16          1.3800    -2.5210     1.2550 HC         1 MOL      -0.027068
     45 H17          0.3440    -1.1390     1.4330 HC         1 MOL      -0.027068
     46 H18          2.1570     0.3610     0.6670 HC         1 MOL       0.032739
     47 H19          2.5570    -0.5330     2.1120 HC         1 MOL       0.032739
     48 H20          3.4750    -1.2060    -0.7110 HC         1 MOL       0.029941
     49 H21          3.8450    -2.1770     0.7020 HC         1 MOL       0.029941
     50 H22          5.4250    -1.3790     2.3970 HC         1 MOL       0.090095
     51 H23          6.3080     0.1200     2.2040 HC         1 MOL       0.090095
     52 H24          4.6130     0.1480     2.6830 HC         1 MOL       0.090095
     53 H25          5.6610    -1.6570    -0.8850 H          1 MOL       0.332386
     54 H26          9.0640    -0.8510    -1.3430 HC         1 MOL       0.083615
     55 H27          7.9040    -2.1800    -1.4990 HC         1 MOL       0.083615
     56 H28          7.7280    -0.7300    -2.4810 HC         1 MOL       0.083615
     57 H29          5.2610     2.0370     1.6250 H          1 MOL       0.402618
     58 H30          3.7850     3.5420    -0.4020 H1         1 MOL       0.190024
     59 H31          4.5890     4.1760     1.0290 H1         1 MOL       0.190024
     60 H32          5.5350     3.6980    -0.3840 H1         1 MOL       0.190024
     61 H33         -5.9230    -0.6040     1.3990 H          1 MOL       0.332386
     62 H34         -7.1030    -3.2380     1.2030 HC         1 MOL       0.083615
     63 H35         -5.9400    -2.6430     2.3790 HC         1 MOL       0.083615
     64 H36         -5.5580    -4.0530     1.3800 HC         1 MOL       0.083615
@<TRIPOS>BOND
     1     1     2 1   
     2     1    29 1   
     3     1    30 1   
     4     1    31 1   
     5     2     3 1   
     6     2    32 1   
     7     3     4 2   
     8     3     5 1   
     9     5     6 1   
    10     5     7 1   
    11     5    25 1   
    12     6    33 1   
    13     6    34 1   
    14     6    35 1   
    15     7     8 1   
    16     7    36 1   
    17     7    37 1   
    18     8     9 1   
    19     8    38 1   
    20     8    39 1   
    21     9    10 1   
    22     9    40 1   
    23     9    41 1   
    24    10    11 2   
    25    10    42 1   
    26    11    12 1   
    27    11    43 1   
    28    12    13 1   
    29    12    44 1   
    30    12    45 1   
    31    13    14 1   
    32    13    46 1   
    33    13    47 1   
    34    14    15 1   
    35    14    48 1   
    36    14    49 1   
    37    15    16 1   
    38    15    17 1   
    39    15    21 1   
    40    16    50 1   
    41    16    51 1   
    42    16    52 1   
    43    17    18 1   
    44    17    53 1   
    45    18    19 1   
    46    18    20 2   
    47    19    54 1   
    48    19    55 1   
    49    19    56 1   
    50    21    22 2   
    51    21    23 1   
    52    23    24 1   
    53    23    57 1   
    54    24    58 1   
    55    24    59 1   
    56    24    60 1   
    57    25    26 1   
    58    25    61 1   
    59    26    27 1   
    60    26    28 2   
    61    27    62 1   
    62    27    63 1   
    63    27    64 1   
@<TRIPOS>SUBSTRUCTURE
     1 MOL         1 TEMP              0 ****  ****    0 ROOT
