@<TRIPOS>MOLECULE
MOL
   64    63     1     0     0
SMALL
resp


@<TRIPOS>ATOM
      1 C1           5.3090    -2.7240    -1.9680 CT         1 MOL      -0.216960
      2 N1           4.8250    -1.4140    -1.5820 N          1 MOL      -0.555284
      3 C2           4.8020    -1.0440    -0.2860 C          1 MOL       0.815809
      4 O1           5.2620    -1.7360     0.5830 O          1 MOL      -0.611472
      5 C3           4.2650     0.3680     0.0570 CT         1 MOL      -0.003055
      6 C4           5.4910     1.2960     0.0930 CT         1 MOL      -0.324167
      7 C5           3.2170     0.8900    -0.9500 CT         1 MOL      -0.049611
      8 C6           2.4840     2.1710    -0.5380 CT         1 MOL       0.046070
      9 C7           1.2370     2.3980    -1.4070 CT         1 MOL       0.018610
     10 C8           0.4010     3.5790    -0.9710 CM         1 MOL      -0.240078
     11 C9          -0.5540     3.5520    -0.0560 CM         1 MOL      -0.355779
     12 C10         -0.9800     2.3460     0.7460 CT         1 MOL       0.166096
     13 C11         -2.2210     1.6380     0.1800 CT         1 MOL       0.093536
     14 C12         -2.5780     0.4150     1.0350 CT         1 MOL      -0.380018
     15 C13         -3.6650    -0.5390     0.4780 CT         1 MOL       0.786570
     16 C14         -3.7900    -1.7390     1.4380 CT         1 MOL      -0.415904
     17 N2          -4.9030     0.2230     0.4610 N          1 MOL      -0.966274
     18 C15         -6.1400    -0.0910    -0.0490 C          1 MOL       0.932180
     19 C16         -6.5370    -1.5380    -0.2370 CT         1 MOL      -0.480855
     20 O2          -6.9250     0.7910    -0.2580 O          1 MOL      -0.651583
     21 C17         -3.2900    -0.9670    -0.9660 C          1 MOL       0.322283
     22 O3          -3.9540    -0.5870    -1.8930 O          1 MOL      -0.556986
     23 N3          -2.1960    -1.7340    -1.2150 N          1 MOL      -0.365594
     24 C18         -1.2750    -2.4740    -0.3720 CT         1 MOL      -0.140769
     25 N4           3.7390     0.3150     1.4170 N          1 MOL      -0.662683
     26 C19          2.6860    -0.4710     1.7740 C          1 MOL       0.796160
     27 C20          2.5680    -0.7330     3.2590 CT         1 MOL      -0.382826
     28 O4           1.8990    -0.9200     0.9830 O          1 MOL      -0.590695
     29 H1           6.2940    -2.8880    -1.5570 H1         1 MOL       0.117433
     30 H2           4.6550    -3.5140    -1.6150 H1         1 MOL       0.117433
     31 H3           5.3650    -2.7660    -3.0480 H1         1 MOL       0.117433
     32 H4           4.2860    -0.9050    -2.2400 H          1 MOL       0.346349
     33 H5           5.9400     1.3700    -0.8910 HC         1 MOL       0.104691
     34 H6           5.2050     2.2880     0.4180 HC         1 MOL       0.104691
     35 H7           6.2430     0.9100     0.7740 HC         1 MOL       0.104691
     36 H8           2.4830     0.1150    -1.1160 HC         1 MOL       0.011363
     37 H9           3.7210     1.0740    -1.8970 HC         1 MOL       0.011363
     38 H10          2.1800     2.1030     0.4980 HC         1 MOL       0.025628
     39 H11          3.1410     3.0330    -0.6110 HC         1 MOL       0.025628
     40 H12          1.5360     2.5390    -2.4430 HC         1 MOL       0.037982
     41 H13          0.6350     1.4950    -1.3870 HC         1 MOL       0.037982
     42 H14          0.6120     4.5180    -1.4570 HA         1 MOL       0.144459
     43 H15         -1.0900     4.4650     0.1480 HA         1 MOL       0.164345
     44 H16         -1.1860     2.6610     1.7670 HC         1 MOL       0.006434
     45 H17         -0.1700     1.6290     0.8060 HC         1 MOL       0.006434
     46 H18         -2.0190     1.3410    -0.8440 HC         1 MOL       0.011683
     47 H19         -3.0450     2.3440     0.1340 HC         1 MOL       0.011683
     48 H20         -2.9170     0.7400     2.0140 HC         1 MOL       0.078456
     49 H21         -1.6740    -0.1550     1.2010 HC         1 MOL       0.078456
     50 H22         -4.3060    -1.4100     2.3310 HC         1 MOL       0.094492
     51 H23         -2.8210    -2.1160     1.7330 HC         1 MOL       0.094492
     52 H24         -4.3470    -2.5620     1.0090 HC         1 MOL       0.094492
     53 H25         -4.7810     1.2100     0.4020 H          1 MOL       0.391950
     54 H26         -7.4910    -1.5460    -0.7420 HC         1 MOL       0.130974
     55 H27         -5.8180    -2.0900    -0.8250 HC         1 MOL       0.130974
     56 H28         -6.6490    -2.0200     0.7280 HC         1 MOL       0.130974
     57 H29         -2.1210    -1.9120    -2.1930 H          1 MOL       0.305672
     58 H30         -0.4760    -2.8270    -1.0080 H1         1 MOL       0.085033
     59 H31         -0.8170    -1.8600     0.3880 H1         1 MOL       0.085033
     60 H32         -1.7370    -3.3380     0.0920 H1         1 MOL       0.085033
     61 H33          4.4390     0.4040     2.1190 H          1 MOL       0.361545
     62 H34          2.8140     0.1440     3.8460 HC         1 MOL       0.105999
     63 H35          3.2580    -1.5280     3.5260 HC         1 MOL       0.105999
     64 H36          1.5620    -1.0540     3.4850 HC         1 MOL       0.105999
@<TRIPOS>BOND
     1     1     2 1   
     2     1    29 1   
     3     1    30 1   
     4     1    31 1   
     5     2     3 1   
     6     2    32 1   
     7     3     4 2   
     8     3     5 1   
     9     5     6 1   
    10     5     7 1   
    11     5    25 1   
    12     6    33 1   
    13     6    34 1   
    14     6    35 1   
    15     7     8 1   
    16     7    36 1   
    17     7    37 1   
    18     8     9 1   
    19     8    38 1   
    20     8    39 1   
    21     9    10 1   
    22     9    40 1   
    23     9    41 1   
    24    10    11 2   
    25    10    42 1   
    26    11    12 1   
    27    11    43 1   
    28    12    13 1   
    29    12    44 1   
    30    12    45 1   
    31    13    14 1   
    32    13    46 1   
    33    13    47 1   
    34    14    15 1   
    35    14    48 1   
    36    14    49 1   
    37    15    16 1   
    38    15    17 1   
    39    15    21 1   
    40    16    50 1   
    41    16    51 1   
    42    16    52 1   
    43    17    18 1   
    44    17    53 1   
    45    18    19 1   
    46    18    20 2   
    47    19    54 1   
    48    19    55 1   
    49    19    56 1   
    50    21    22 2   
    51    21    23 1   
    52    23    24 1   
    53    23    57 1   
    54    24    58 1   
    55    24    59 1   
    56    24    60 1   
    57    25    26 1   
    58    25    61 1   
    59    26    27 1   
    60    26    28 2   
    61    27    62 1   
    62    27    63 1   
    63    27    64 1   
@<TRIPOS>SUBSTRUCTURE
     1 MOL         1 TEMP              0 ****  ****    0 ROOT
