@<TRIPOS>MOLECULE
MOL
64 63 1 0 1
SMALL
USER_CHARGES
@<TRIPOS>ATOM
       1 C1          -3.7760     2.8860     0.5750 CT            1 MOL       -0.403462
       2 N1          -4.1230     1.4800     0.5760 N             1 MOL       -0.525431
       3 C           -4.3260     0.8340    -0.5960 C             1 MOL        0.840772
       4 O           -4.0170     1.3060    -1.6550 O             1 MOL       -0.623633
       5 CA          -4.8530    -0.6090    -0.4990 CX            1 MOL        0.112428
       6 C1B         -5.4600    -1.0250    -1.8430 CU            1 MOL       -0.165593
       7 C2B         -3.7090    -1.5680    -0.0710 CU            1 MOL       -0.056478
       8 CY          -2.4660    -1.6960    -0.9700 CU            1 MOL       -0.007906
       9 CD          -1.3640    -0.6280    -0.8230 CU            1 MOL       -0.024527
      10 CE          -0.8130    -0.5020     0.5780 CM            1 MOL       -0.203463
      11 CF           0.2970    -1.0380     1.0590 CM            1 MOL       -0.203463
      12 CG           1.2880    -1.9100     0.3260 CU            1 MOL       -0.024527
      13 CH           2.5730    -1.1820    -0.1080 CU            1 MOL       -0.007906
      14 CI           3.3660    -0.6210     1.0800 CU            1 MOL       -0.056478
      15 CJ           4.7680    -0.0200     0.8010 CT            1 MOL        0.112428
      16 C14          5.3150     0.5210     2.1320 CT            1 MOL       -0.165593
      17 N2           5.6390    -1.0810     0.3140 N             1 MOL       -0.763989
      18 C15          6.8950    -0.8160    -0.1500 C             1 MOL        0.869077
      19 C16          7.5230    -1.9270    -0.9600 CT            1 MOL       -0.429884
      20 O2           7.4640     0.2180     0.0650 O             1 MOL       -0.620799
      21 C17          4.6340     1.0450    -0.3110 C             1 MOL        0.840772
      22 O3           4.6310     0.7170    -1.4670 O             1 MOL       -0.623633
      23 N3           4.4200     2.3220     0.0730 N             1 MOL       -0.525431
      24 C18          4.3360     3.3770    -0.9160 CT            1 MOL       -0.403462
      25 N           -5.8520    -0.7190     0.5740 N             1 MOL       -0.763989
      26 C19         -7.0160    -0.0090     0.6000 C             1 MOL        0.869077
      27 C20         -8.0560    -0.5150     1.5780 CT            1 MOL       -0.429884
      28 O4          -7.2020     0.9530    -0.0900 O             1 MOL       -0.620799
      29 H1          -4.5860     3.5010     0.2000 H1            1 MOL        0.166998
      30 H2          -2.9070     3.0470    -0.0460 H1            1 MOL        0.166998
      31 H3          -3.5420     3.1850     1.5890 H1            1 MOL        0.166998
      32 H4          -4.6140     1.1320     1.3660 H             1 MOL        0.325768
      33 HB1         -4.7420    -0.9280    -2.6430 HC            1 MOL        0.060654
      34 HB2         -5.7900    -2.0580    -1.7860 HC            1 MOL        0.060654
      35 HB3         -6.3060    -0.3980    -2.0840 HC            1 MOL        0.060654
      36 HB4         -4.1620    -2.5550    -0.0090 HC            1 MOL        0.014075
      37 HB5         -3.4030    -1.3100     0.9380 HC            1 MOL        0.014075
      38 HC1         -2.0190    -2.6590    -0.7410 HC            1 MOL        0.017604
      39 HC2         -2.7650    -1.7430    -2.0120 HC            1 MOL        0.017604
      40 HD1         -1.7360     0.3360    -1.1450 HC            1 MOL        0.057311
      41 HD2         -0.5710    -0.8890    -1.5150 HC            1 MOL        0.057311
      42 HE          -1.4020     0.1010     1.2500 HA            1 MOL        0.111625
      43 HF           0.5360    -0.8340     2.0910 HA            1 MOL        0.111625
      44 HG1          0.8290    -2.3420    -0.5550 HC            1 MOL        0.057311
      45 HG2          1.5550    -2.7470     0.9700 HC            1 MOL        0.057311
      46 HH1          3.1750    -1.8850    -0.6770 HC            1 MOL        0.017604
      47 HH2          2.3180    -0.3850    -0.7940 HC            1 MOL        0.017604
      48 HI1          3.5070    -1.4040     1.8220 HC            1 MOL        0.014075
      49 HI2          2.7760     0.1540     1.5550 HC            1 MOL        0.014075
      50 H22          5.4690    -0.3120     2.8080 HC            1 MOL        0.060654
      51 H23          4.6070     1.1950     2.6030 HC            1 MOL        0.060654
      52 H24          6.2600     1.0260     1.9990 HC            1 MOL        0.060654
      53 H25          5.1770    -1.8330    -0.1440 H             1 MOL        0.363698
      54 H26          8.5950    -1.8010    -0.9610 HC            1 MOL        0.113620
      55 H27          7.1630    -1.8560    -1.9820 HC            1 MOL        0.113620
      56 H28          7.2680    -2.9080    -0.5740 HC            1 MOL        0.113620
      57 H29          4.6660     2.5850     0.9980 H             1 MOL        0.325768
      58 H30          4.0430     4.2930    -0.4200 H1            1 MOL        0.166998
      59 H31          3.5920     3.1240    -1.6570 H1            1 MOL        0.166998
      60 H32          5.2840     3.5320    -1.4210 H1            1 MOL        0.166998
      61 H           -5.8450    -1.5760     1.0810 H             1 MOL        0.363698
      62 H34         -8.7380     0.2900     1.8100 HC            1 MOL        0.113620
      63 H35         -7.6110    -0.8920     2.4920 HC            1 MOL        0.113620
      64 H36         -8.6170    -1.3210     1.1160 HC            1 MOL        0.113620
@<TRIPOS>BOND
       1        1        2 1
       2        1       29 1
       3        1       30 1
       4        1       31 1
       5        2        3 1
       6        2       32 1
       7        3        4 2
       8        3        5 1
       9        5        6 1
      10        5        7 1
      11        5       25 1
      12        6       33 1
      13        6       34 1
      14        6       35 1
      15        7        8 1
      16        7       36 1
      17        7       37 1
      18        8        9 1
      19        8       38 1
      20        8       39 1
      21        9       10 1
      22        9       40 1
      23        9       41 1
      24       10       11 2
      25       10       42 1
      26       11       12 1
      27       11       43 1
      28       12       13 1
      29       12       44 1
      30       12       45 1
      31       13       14 1
      32       13       46 1
      33       13       47 1
      34       14       15 1
      35       14       48 1
      36       14       49 1
      37       15       16 1
      38       15       17 1
      39       15       21 1
      40       16       50 1
      41       16       51 1
      42       16       52 1
      43       17       18 1
      44       17       53 1
      45       18       19 1
      46       18       20 2
      47       19       54 1
      48       19       55 1
      49       19       56 1
      50       21       22 2
      51       21       23 1
      52       23       24 1
      53       23       57 1
      54       24       58 1
      55       24       59 1
      56       24       60 1
      57       25       26 1
      58       25       61 1
      59       26       27 1
      60       26       28 2
      61       27       62 1
      62       27       63 1
      63       27       64 1
@<TRIPOS>SUBSTRUCTURE
       1 MOL             1 RESIDUE    0 **** ROOT      0
