@<TRIPOS>MOLECULE
MOL
64 63 1 0 1
SMALL
USER_CHARGES
@<TRIPOS>ATOM
       1 C1           7.3710     3.0410    -0.4260 CT            1 MOL       -0.276141
       2 N1           6.5660     2.0790     0.3000 N             1 MOL       -0.567469
       3 C            5.8540     1.1500    -0.3700 C             1 MOL        0.791987
       4 O            5.7410     1.1650    -1.5670 O             1 MOL       -0.612869
       5 CA           5.0680     0.1020     0.4540 CX            1 MOL        0.040589
       6 C1B          5.5230    -0.0350     1.9130 CU            1 MOL       -0.263184
       7 C2B          3.5910     0.5570     0.3770 CU            1 MOL        0.012305
       8 CY           2.5710    -0.3300     1.0980 CU            1 MOL        0.048132
       9 CD           1.1320     0.1430     0.8470 CU            1 MOL        0.094925
      10 CE           0.1220    -0.6730     1.6110 CM            1 MOL       -0.240202
      11 CF          -0.8720    -1.4030     1.1330 CM            1 MOL       -0.240202
      12 CG          -1.2560    -1.6090    -0.3120 CU            1 MOL        0.094925
      13 CH          -2.4450    -0.7540    -0.7860 CU            1 MOL        0.048132
      14 CI          -3.7450    -1.0750    -0.0430 CU            1 MOL        0.012305
      15 CJ          -5.0060    -0.3040    -0.4860 CT            1 MOL        0.040589
      16 C14         -5.2480    -0.4780    -1.9920 CT            1 MOL       -0.263184
      17 N2          -6.1070    -0.9050     0.2940 N             1 MOL       -0.683444
      18 C15         -7.4360    -0.7130     0.1600 C             1 MOL        0.858323
      19 C16         -8.3020    -1.4710     1.1450 CT            1 MOL       -0.418064
      20 O2          -7.9370     0.0190    -0.6580 O             1 MOL       -0.625912
      21 C17         -4.8730     1.1870    -0.0820 C             1 MOL        0.791987
      22 O3          -3.9700     1.5660     0.6180 O             1 MOL       -0.612869
      23 N3          -5.8150     2.0210    -0.5590 N             1 MOL       -0.567469
      24 C18         -5.8430     3.4060    -0.1410 CT            1 MOL       -0.276141
      25 N            5.1840    -1.1810    -0.2320 N             1 MOL       -0.683444
      26 C19          6.4010    -1.7140    -0.5350 C             1 MOL        0.858323
      27 C20          6.3750    -2.8370    -1.5460 CT            1 MOL       -0.418064
      28 O4           7.4230    -1.3230    -0.0400 O             1 MOL       -0.625912
      29 H1           7.7510     3.7720     0.2760 H1            1 MOL        0.133219
      30 H2           8.2040     2.5680    -0.9340 H1            1 MOL        0.133219
      31 H3           6.7610     3.5440    -1.1610 H1            1 MOL        0.133219
      32 H4           6.8330     1.8800     1.2340 H             1 MOL        0.368456
      33 HB1          5.0070    -0.8660     2.3740 HC            1 MOL        0.080135
      34 HB2          6.5830    -0.2330     1.9790 HC            1 MOL        0.080135
      35 HB3          5.2840     0.8600     2.4790 HC            1 MOL        0.080135
      36 HB4          3.5340     1.5640     0.7810 HC            1 MOL        0.004515
      37 HB5          3.3280     0.6380    -0.6740 HC            1 MOL        0.004515
      38 HC1          2.6670    -1.3620     0.7760 HC            1 MOL        0.000894
      39 HC2          2.7610    -0.3250     2.1670 HC            1 MOL        0.000894
      40 HD1          0.9230     0.1280    -0.2160 HC            1 MOL        0.008768
      41 HD2          1.0420     1.1830     1.1590 HC            1 MOL        0.008768
      42 HE           0.2410    -0.6400     2.6830 HA            1 MOL        0.125277
      43 HF          -1.4940    -1.9110     1.8530 HA            1 MOL        0.125277
      44 HG1         -1.4960    -2.6610    -0.4600 HC            1 MOL        0.008768
      45 HG2         -0.4120    -1.4000    -0.9600 HC            1 MOL        0.008768
      46 HH1         -2.5740    -0.9350    -1.8490 HC            1 MOL        0.000894
      47 HH2         -2.2040     0.2940    -0.6590 HC            1 MOL        0.000894
      48 HI1         -3.5990    -0.8930     1.0150 HC            1 MOL        0.004515
      49 HI2         -3.9660    -2.1340    -0.1700 HC            1 MOL        0.004515
      50 H22         -6.2170    -0.1140    -2.2940 HC            1 MOL        0.080135
      51 H23         -4.4940     0.0550    -2.5580 HC            1 MOL        0.080135
      52 H24         -5.1890    -1.5310    -2.2470 HC            1 MOL        0.080135
      53 H25         -5.8190    -1.4710     1.0600 H             1 MOL        0.344964
      54 H26         -8.5990    -0.7910     1.9370 HC            1 MOL        0.111304
      55 H27         -7.8040    -2.3250     1.5880 HC            1 MOL        0.111304
      56 H28         -9.1960    -1.7980     0.6340 HC            1 MOL        0.111304
      57 H29         -6.6540     1.6190    -0.9170 H             1 MOL        0.368456
      58 H30         -6.6050     3.9200    -0.7110 H1            1 MOL        0.133219
      59 H31         -6.0640     3.5080     0.9160 H1            1 MOL        0.133219
      60 H32         -4.8870     3.8710    -0.3320 H1            1 MOL        0.133219
      61 H            4.4700    -1.3620    -0.9030 H             1 MOL        0.344964
      62 H34          7.2740    -3.4270    -1.4420 HC            1 MOL        0.111304
      63 H35          6.3560    -2.4070    -2.5430 HC            1 MOL        0.111304
      64 H36          5.5030    -3.4700    -1.4290 HC            1 MOL        0.111304
@<TRIPOS>BOND
       1        1        2 1
       2        1       29 1
       3        1       30 1
       4        1       31 1
       5        2        3 1
       6        2       32 1
       7        3        4 2
       8        3        5 1
       9        5        6 1
      10        5        7 1
      11        5       25 1
      12        6       33 1
      13        6       34 1
      14        6       35 1
      15        7        8 1
      16        7       36 1
      17        7       37 1
      18        8        9 1
      19        8       38 1
      20        8       39 1
      21        9       10 1
      22        9       40 1
      23        9       41 1
      24       10       11 2
      25       10       42 1
      26       11       12 1
      27       11       43 1
      28       12       13 1
      29       12       44 1
      30       12       45 1
      31       13       14 1
      32       13       46 1
      33       13       47 1
      34       14       15 1
      35       14       48 1
      36       14       49 1
      37       15       16 1
      38       15       17 1
      39       15       21 1
      40       16       50 1
      41       16       51 1
      42       16       52 1
      43       17       18 1
      44       17       53 1
      45       18       19 1
      46       18       20 2
      47       19       54 1
      48       19       55 1
      49       19       56 1
      50       21       22 2
      51       21       23 1
      52       23       24 1
      53       23       57 1
      54       24       58 1
      55       24       59 1
      56       24       60 1
      57       25       26 1
      58       25       61 1
      59       26       27 1
      60       26       28 2
      61       27       62 1
      62       27       63 1
      63       27       64 1
@<TRIPOS>SUBSTRUCTURE
       1 MOL             1 RESIDUE    0 **** ROOT      0
