@<TRIPOS>MOLECULE
MOL
   64    63     1     0     0
SMALL
resp


@<TRIPOS>ATOM
      1 C1           5.7300     3.5880    -0.8120 CT         1 MOL      -0.241966
      2 N1           4.9060     2.4820    -0.3670 N          1 MOL      -0.572010
      3 C2           5.4690     1.3150     0.0040 C          1 MOL       0.840246
      4 O1           6.6600     1.1800     0.0970 O          1 MOL      -0.627383
      5 C3           4.5270     0.1660     0.4530 CT         1 MOL      -0.016409
      6 C4           4.4290     0.3250     1.9820 CT         1 MOL      -0.315453
      7 C5           3.1340     0.2240    -0.2270 CT         1 MOL      -0.094055
      8 C6           2.3060    -1.0690    -0.3020 CT         1 MOL      -0.002603
      9 C7           1.7700    -1.6950     0.9980 CT         1 MOL       0.020746
     10 C8           0.8690    -0.7860     1.7940 CM         1 MOL      -0.224731
     11 C9          -0.4370    -0.8910     1.9890 CM         1 MOL      -0.224731
     12 C10         -1.3750    -1.9530     1.4700 CT         1 MOL       0.020746
     13 C11         -2.2870    -1.4790     0.3250 CT         1 MOL      -0.002603
     14 C12         -3.2170    -0.3300     0.7320 CT         1 MOL      -0.094055
     15 C13         -4.3230     0.0350    -0.2870 CT         1 MOL      -0.016409
     16 C14         -3.7170     0.3640    -1.6570 CT         1 MOL      -0.315453
     17 N2          -5.2320    -1.1030    -0.3980 N          1 MOL      -0.661494
     18 C15         -6.4320    -0.9890    -1.0360 C          1 MOL       0.841248
     19 C16         -7.4090    -2.1120    -0.7690 CT         1 MOL      -0.378018
     20 O2          -6.7000    -0.0660    -1.7540 O          1 MOL      -0.614414
     21 C17         -5.1060     1.1980     0.3690 C          1 MOL       0.840246
     22 O3          -5.7930     0.9770     1.3310 O          1 MOL      -0.627383
     23 N3          -4.9060     2.4450    -0.1050 N          1 MOL      -0.572010
     24 C18         -5.6700     3.5550     0.4270 CT         1 MOL      -0.241966
     25 N4           5.2100    -1.0940     0.1940 N          1 MOL      -0.661494
     26 C19          5.6440    -1.4090    -1.0630 C          1 MOL       0.841248
     27 C20          6.7020    -2.4860    -1.1240 CT         1 MOL      -0.378018
     28 O4           5.2120    -0.8770    -2.0470 O          1 MOL      -0.614414
     29 H1           6.2210     3.3690    -1.7540 H1         1 MOL       0.125960
     30 H2           5.1000     4.4600    -0.9340 H1         1 MOL       0.125960
     31 H3           6.4880     3.8020    -0.0730 H1         1 MOL       0.125960
     32 H4           3.9450     2.4970    -0.6080 H          1 MOL       0.349395
     33 H5           3.8750    -0.4890     2.4270 HC         1 MOL       0.104296
     34 H6           5.4210     0.3460     2.4190 HC         1 MOL       0.104296
     35 H7           3.9350     1.2560     2.2340 HC         1 MOL       0.104296
     36 H8           2.5490     0.9970     0.2660 HC         1 MOL       0.044841
     37 H9           3.2740     0.5340    -1.2530 HC         1 MOL       0.044841
     38 H10          1.4500    -0.8420    -0.9330 HC         1 MOL       0.030582
     39 H11          2.8810    -1.8170    -0.8330 HC         1 MOL       0.030582
     40 H12          1.2420    -2.6000     0.7230 HC         1 MOL       0.035203
     41 H13          2.6000    -2.0160     1.6210 HC         1 MOL       0.035203
     42 H14          1.3580     0.0560     2.2590 HA         1 MOL       0.126977
     43 H15         -0.9020    -0.1290     2.5940 HA         1 MOL       0.126977
     44 H16         -1.9960    -2.2970     2.2950 HC         1 MOL       0.035203
     45 H17         -0.8200    -2.8180     1.1270 HC         1 MOL       0.035203
     46 H18         -2.8750    -2.3260    -0.0160 HC         1 MOL       0.030582
     47 H19         -1.6650    -1.1770    -0.5110 HC         1 MOL       0.030582
     48 H20         -3.7050    -0.5660     1.6730 HC         1 MOL       0.044841
     49 H21         -2.6300     0.5660     0.9090 HC         1 MOL       0.044841
     50 H22         -2.9240     1.1000    -1.5620 HC         1 MOL       0.104296
     51 H23         -4.4670     0.7260    -2.3450 HC         1 MOL       0.104296
     52 H24         -3.2880    -0.5320    -2.0850 HC         1 MOL       0.104296
     53 H25         -5.2330    -1.7150     0.3870 H          1 MOL       0.351527
     54 H26         -6.9120    -3.0720    -0.6860 HC         1 MOL       0.102125
     55 H27         -8.1370    -2.1430    -1.5660 HC         1 MOL       0.102125
     56 H28         -7.9250    -1.9100     0.1650 HC         1 MOL       0.102125
     57 H29         -4.5580     2.5400    -1.0300 H          1 MOL       0.349395
     58 H30         -6.7230     3.4740     0.1810 H1         1 MOL       0.125960
     59 H31         -5.5710     3.5810     1.5020 H1         1 MOL       0.125960
     60 H32         -5.2770     4.4750     0.0140 H1         1 MOL       0.125960
     61 H33          5.8290    -1.3750     0.9220 H          1 MOL       0.351527
     62 H34          6.5240    -3.2710    -0.3970 HC         1 MOL       0.102125
     63 H35          7.6670    -2.0350    -0.9120 HC         1 MOL       0.102125
     64 H36          6.7250    -2.9050    -2.1190 HC         1 MOL       0.102125
@<TRIPOS>BOND
     1     1     2 1   
     2     1    29 1   
     3     1    30 1   
     4     1    31 1   
     5     2     3 1   
     6     2    32 1   
     7     3     4 2   
     8     3     5 1   
     9     5     6 1   
    10     5     7 1   
    11     5    25 1   
    12     6    33 1   
    13     6    34 1   
    14     6    35 1   
    15     7     8 1   
    16     7    36 1   
    17     7    37 1   
    18     8     9 1   
    19     8    38 1   
    20     8    39 1   
    21     9    10 1   
    22     9    40 1   
    23     9    41 1   
    24    10    11 2   
    25    10    42 1   
    26    11    12 1   
    27    11    43 1   
    28    12    13 1   
    29    12    44 1   
    30    12    45 1   
    31    13    14 1   
    32    13    46 1   
    33    13    47 1   
    34    14    15 1   
    35    14    48 1   
    36    14    49 1   
    37    15    16 1   
    38    15    17 1   
    39    15    21 1   
    40    16    50 1   
    41    16    51 1   
    42    16    52 1   
    43    17    18 1   
    44    17    53 1   
    45    18    19 1   
    46    18    20 2   
    47    19    54 1   
    48    19    55 1   
    49    19    56 1   
    50    21    22 2   
    51    21    23 1   
    52    23    24 1   
    53    23    57 1   
    54    24    58 1   
    55    24    59 1   
    56    24    60 1   
    57    25    26 1   
    58    25    61 1   
    59    26    27 1   
    60    26    28 2   
    61    27    62 1   
    62    27    63 1   
    63    27    64 1   
@<TRIPOS>SUBSTRUCTURE
     1 MOL         1 TEMP              0 ****  ****    0 ROOT
