@<TRIPOS>MOLECULE
MOL
   64    63     1     0     0
SMALL
resp


@<TRIPOS>ATOM
      1 C1          -6.6630     3.2540    -0.2610 CT         1 MOL      -0.248498
      2 N1          -5.7140     2.1660    -0.3880 N          1 MOL      -0.581751
      3 C2          -6.1540     0.9190    -0.6510 C          1 MOL       0.847083
      4 O1          -7.3000     0.6890    -0.9370 O          1 MOL      -0.627957
      5 C3          -5.1240    -0.2400    -0.6920 CT         1 MOL      -0.072612
      6 C4          -5.0030    -0.6350    -2.1720 CT         1 MOL      -0.268384
      7 C5          -3.7420     0.1180    -0.1030 CT         1 MOL      -0.018613
      8 C6          -2.7190    -1.0240    -0.1070 CT         1 MOL       0.050651
      9 C7          -1.4380    -0.6910     0.6780 CT         1 MOL      -0.012721
     10 C8          -0.6620     0.4800     0.1260 CM         1 MOL      -0.214726
     11 C9           0.4590     0.4500    -0.5780 CM         1 MOL      -0.214726
     12 C10          1.2480    -0.7640    -1.0030 CT         1 MOL      -0.012721
     13 C11          2.5310    -0.9950    -0.1850 CT         1 MOL       0.050651
     14 C12          3.5350     0.1580    -0.3030 CT         1 MOL      -0.018613
     15 C13          4.9330    -0.1000     0.3070 CT         1 MOL      -0.072612
     16 C14          4.8190    -0.4920     1.7860 CT         1 MOL      -0.268384
     17 N2           5.5680    -1.1740    -0.4520 N          1 MOL      -0.639529
     18 C15          6.8930    -1.4610    -0.2980 C          1 MOL       0.847282
     19 C16          7.4920    -2.3240    -1.3840 CT         1 MOL      -0.387862
     20 O2           7.5410    -1.0570     0.6280 O          1 MOL      -0.622742
     21 C17          5.7320     1.1980     0.0420 C          1 MOL       0.847083
     22 O3           6.0730     1.4620    -1.0800 O          1 MOL      -0.627957
     23 N3           5.9300     2.0430     1.0750 N          1 MOL      -0.581751
     24 C18          6.7290     3.2380     0.8940 CT         1 MOL      -0.248498
     25 N4          -5.7170    -1.3750     0.0110 N          1 MOL      -0.639529
     26 C19         -6.2020    -1.2550     1.2770 C          1 MOL       0.847282
     27 C20         -7.0910    -2.3880     1.7370 CT         1 MOL      -0.387862
     28 O4          -5.9480    -0.3150     1.9810 O          1 MOL      -0.622742
     29 H1          -6.1130     4.1820    -0.1710 H1         1 MOL       0.128093
     30 H2          -7.3020     3.1320     0.6070 H1         1 MOL       0.128093
     31 H3          -7.2850     3.2980    -1.1420 H1         1 MOL       0.128093
     32 H4          -4.8540     2.2620     0.0970 H          1 MOL       0.360702
     33 H5          -5.9840    -0.8130    -2.5920 HC         1 MOL       0.095341
     34 H6          -4.5310     0.1600    -2.7380 HC         1 MOL       0.095341
     35 H7          -4.4050    -1.5320    -2.2830 HC         1 MOL       0.095341
     36 H8          -3.3410     0.9480    -0.6780 HC         1 MOL       0.024105
     37 H9          -3.8780     0.4550     0.9170 HC         1 MOL       0.024105
     38 H10         -3.1680    -1.9080     0.3330 HC         1 MOL       0.002118
     39 H11         -2.4420    -1.2800    -1.1250 HC         1 MOL       0.002118
     40 H12         -1.7070    -0.4730     1.7100 HC         1 MOL       0.044766
     41 H13         -0.8150    -1.5770     0.7090 HC         1 MOL       0.044766
     42 H14         -1.0820     1.4510     0.3350 HA         1 MOL       0.119780
     43 H15          0.8700     1.3980    -0.8890 HA         1 MOL       0.119780
     44 H16          1.5140    -0.6530    -2.0530 HC         1 MOL       0.044766
     45 H17          0.6350    -1.6550    -0.9390 HC         1 MOL       0.044766
     46 H18          2.9900    -1.9200    -0.5230 HC         1 MOL       0.002118
     47 H19          2.2560    -1.1450     0.8530 HC         1 MOL       0.002118
     48 H20          3.1280     1.0420     0.1780 HC         1 MOL       0.024105
     49 H21          3.6760     0.4170    -1.3480 HC         1 MOL       0.024105
     50 H22          4.2030     0.2190     2.3280 HC         1 MOL       0.095341
     51 H23          4.3520    -1.4640     1.8660 HC         1 MOL       0.095341
     52 H24          5.7910    -0.5570     2.2530 HC         1 MOL       0.095341
     53 H25          5.2240    -1.2880    -1.3790 H          1 MOL       0.346288
     54 H26          7.7610    -1.6910    -2.2240 HC         1 MOL       0.103776
     55 H27          6.7970    -3.0790    -1.7340 HC         1 MOL       0.103776
     56 H28          8.3870    -2.7960    -1.0070 HC         1 MOL       0.103776
     57 H29          5.8640     1.6780     1.9950 H          1 MOL       0.360702
     58 H30          6.3500     3.8060     0.0580 H1         1 MOL       0.128093
     59 H31          7.7710     3.0020     0.7050 H1         1 MOL       0.128093
     60 H32          6.6580     3.8400     1.7910 H1         1 MOL       0.128093
     61 H33         -6.1890    -2.0320    -0.5690 H          1 MOL       0.346288
     62 H34         -8.1010    -2.2030     1.3830 HC         1 MOL       0.103776
     63 H35         -7.1030    -2.4120     2.8170 HC         1 MOL       0.103776
     64 H36         -6.7630    -3.3470     1.3510 HC         1 MOL       0.103776
@<TRIPOS>BOND
     1     1     2 1   
     2     1    29 1   
     3     1    30 1   
     4     1    31 1   
     5     2     3 1   
     6     2    32 1   
     7     3     4 2   
     8     3     5 1   
     9     5     6 1   
    10     5     7 1   
    11     5    25 1   
    12     6    33 1   
    13     6    34 1   
    14     6    35 1   
    15     7     8 1   
    16     7    36 1   
    17     7    37 1   
    18     8     9 1   
    19     8    38 1   
    20     8    39 1   
    21     9    10 1   
    22     9    40 1   
    23     9    41 1   
    24    10    11 2   
    25    10    42 1   
    26    11    12 1   
    27    11    43 1   
    28    12    13 1   
    29    12    44 1   
    30    12    45 1   
    31    13    14 1   
    32    13    46 1   
    33    13    47 1   
    34    14    15 1   
    35    14    48 1   
    36    14    49 1   
    37    15    16 1   
    38    15    17 1   
    39    15    21 1   
    40    16    50 1   
    41    16    51 1   
    42    16    52 1   
    43    17    18 1   
    44    17    53 1   
    45    18    19 1   
    46    18    20 2   
    47    19    54 1   
    48    19    55 1   
    49    19    56 1   
    50    21    22 2   
    51    21    23 1   
    52    23    24 1   
    53    23    57 1   
    54    24    58 1   
    55    24    59 1   
    56    24    60 1   
    57    25    26 1   
    58    25    61 1   
    59    26    27 1   
    60    26    28 2   
    61    27    62 1   
    62    27    63 1   
    63    27    64 1   
@<TRIPOS>SUBSTRUCTURE
     1 MOL         1 TEMP              0 ****  ****    0 ROOT
