@<TRIPOS>MOLECULE
MOL
64 63 1 0 1
SMALL
USER_CHARGES
@<TRIPOS>ATOM
       1 C1          -5.2050     3.7650     1.2920 CT            1 MOL       -0.451372
       2 N1          -4.5660     2.7180     0.5220 N             1 MOL       -0.569752
       3 C           -5.1730     1.5370     0.3100 C             1 MOL        0.867617
       4 O           -6.2630     1.2990     0.7660 O             1 MOL       -0.616317
       5 CA          -4.4070     0.5110    -0.5510 CX            1 MOL        0.041008
       6 C1B         -4.1960     1.0950    -1.9610 CU            1 MOL       -0.351954
       7 C2B         -3.0470     0.1600     0.0980 CU            1 MOL       -0.169734
       8 CY          -3.1330    -0.3780     1.5280 CU            1 MOL        0.002897
       9 CD          -1.7570    -0.6930     2.1360 CU            1 MOL        0.292110
      10 CE          -1.0500    -1.8320     1.4450 CM            1 MOL       -0.268592
      11 CF           0.1810    -1.8740     0.9630 CM            1 MOL       -0.268592
      12 CG           1.2280    -0.7910     0.9530 CU            1 MOL        0.292110
      13 CH           1.6470    -0.4260    -0.4800 CU            1 MOL        0.002897
      14 CI           2.7640     0.6340    -0.5600 CU            1 MOL       -0.169734
      15 CJ           4.2170     0.1260    -0.7620 CT            1 MOL        0.041008
      16 C14          4.3860    -0.5330    -2.1360 CT            1 MOL       -0.351954
      17 N2           5.0630     1.3240    -0.6590 N             1 MOL       -0.694669
      18 C15          6.4200     1.3070    -0.7900 C             1 MOL        0.890572
      19 C16          7.0610     2.6610    -1.0120 CT            1 MOL       -0.392331
      20 O2           7.0640     0.2990    -0.7220 O             1 MOL       -0.637362
      21 C17          4.5520    -0.8880     0.3450 C             1 MOL        0.867617
      22 O3           4.3800    -2.0630     0.1640 O             1 MOL       -0.616317
      23 N3           4.9170    -0.3810     1.5430 N             1 MOL       -0.569752
      24 C18          5.3670    -1.2610     2.6010 CT            1 MOL       -0.451372
      25 N           -5.2850    -0.6480    -0.6130 N             1 MOL       -0.694669
      26 C19         -5.0450    -1.7870    -1.2920 C             1 MOL        0.890572
      27 C20         -6.1540    -2.8180    -1.2310 CT            1 MOL       -0.392331
      28 O4          -4.0420    -1.9960    -1.9260 O             1 MOL       -0.637362
      29 H1          -6.1230     4.0910     0.8200 H1            1 MOL        0.184571
      30 H2          -4.5260     4.6040     1.3610 H1            1 MOL        0.184571
      31 H3          -5.4390     3.4180     2.2900 H1            1 MOL        0.184571
      32 H4          -3.6800     2.8970     0.1160 H             1 MOL        0.341744
      33 HB1         -3.7520     0.3440    -2.5980 HC            1 MOL        0.120864
      34 HB2         -5.1450     1.3990    -2.3900 HC            1 MOL        0.120864
      35 HB3         -3.5390     1.9580    -1.9420 HC            1 MOL        0.120864
      36 HB4         -2.5640    -0.5660    -0.5410 HC            1 MOL        0.062214
      37 HB5         -2.4180     1.0470     0.0880 HC            1 MOL        0.062214
      38 HC1         -3.6330     0.3430     2.1700 HC            1 MOL        0.004980
      39 HC2         -3.7440    -1.2750     1.5420 HC            1 MOL        0.004980
      40 HD1         -1.1470     0.2030     2.1380 HC            1 MOL       -0.057556
      41 HD2         -1.9060    -0.9630     3.1800 HC            1 MOL       -0.057556
      42 HE          -1.6450    -2.7290     1.3510 HA            1 MOL        0.145399
      43 HF           0.5030    -2.8000     0.5120 HA            1 MOL        0.145399
      44 HG1          2.0920    -1.1440     1.5060 HC            1 MOL       -0.057556
      45 HG2          0.8760     0.1010     1.4620 HC            1 MOL       -0.057556
      46 HH1          0.7740    -0.0450    -1.0000 HC            1 MOL        0.004980
      47 HH2          1.9410    -1.3270    -1.0030 HC            1 MOL        0.004980
      48 HI1          2.7420     1.2500     0.3350 HC            1 MOL        0.062214
      49 HI2          2.5590     1.2980    -1.3970 HC            1 MOL        0.062214
      50 H22          5.4090    -0.8490    -2.2810 HC            1 MOL        0.120864
      51 H23          3.7540    -1.4020    -2.2350 HC            1 MOL        0.120864
      52 H24          4.1250     0.1820    -2.9110 HC            1 MOL        0.120864
      53 H25          4.6100     2.1860    -0.8630 H             1 MOL        0.336280
      54 H26          8.0990     2.6090    -0.7210 HC            1 MOL        0.099625
      55 H27          7.0110     2.9090    -2.0680 HC            1 MOL        0.099625
      56 H28          6.5630     3.4480    -0.4560 HC            1 MOL        0.099625
      57 H29          5.2430     0.5570     1.5550 H             1 MOL        0.341744
      58 H30          5.4670    -0.6850     3.5110 H1            1 MOL        0.184571
      59 H31          4.6390    -2.0430     2.7590 H1            1 MOL        0.184571
      60 H32          6.3200    -1.7210     2.3640 H1            1 MOL        0.184571
      61 H           -6.1420    -0.5460    -0.1170 H             1 MOL        0.336280
      62 H34         -6.6690    -2.8260    -2.1860 HC            1 MOL        0.099625
      63 H35         -6.8770    -2.6290    -0.4470 HC            1 MOL        0.099625
      64 H36         -5.7110    -3.7940    -1.0870 HC            1 MOL        0.099625
@<TRIPOS>BOND
       1        1        2 1
       2        1       29 1
       3        1       30 1
       4        1       31 1
       5        2        3 1
       6        2       32 1
       7        3        4 2
       8        3        5 1
       9        5        6 1
      10        5        7 1
      11        5       25 1
      12        6       33 1
      13        6       34 1
      14        6       35 1
      15        7        8 1
      16        7       36 1
      17        7       37 1
      18        8        9 1
      19        8       38 1
      20        8       39 1
      21        9       10 1
      22        9       40 1
      23        9       41 1
      24       10       11 2
      25       10       42 1
      26       11       12 1
      27       11       43 1
      28       12       13 1
      29       12       44 1
      30       12       45 1
      31       13       14 1
      32       13       46 1
      33       13       47 1
      34       14       15 1
      35       14       48 1
      36       14       49 1
      37       15       16 1
      38       15       17 1
      39       15       21 1
      40       16       50 1
      41       16       51 1
      42       16       52 1
      43       17       18 1
      44       17       53 1
      45       18       19 1
      46       18       20 2
      47       19       54 1
      48       19       55 1
      49       19       56 1
      50       21       22 2
      51       21       23 1
      52       23       24 1
      53       23       57 1
      54       24       58 1
      55       24       59 1
      56       24       60 1
      57       25       26 1
      58       25       61 1
      59       26       27 1
      60       26       28 2
      61       27       62 1
      62       27       63 1
      63       27       64 1
@<TRIPOS>SUBSTRUCTURE
       1 MOL             1 RESIDUE    0 **** ROOT      0
