@<TRIPOS>MOLECULE
MOL
64 63 1 0 1
SMALL
USER_CHARGES
@<TRIPOS>ATOM
       1 C1           1.7620    -2.4250    -2.3500 CT            1 MOL       -0.251593
       2 N1           2.7310    -1.8690    -1.4300 N             1 MOL       -0.585222
       3 C            2.6540    -0.5790    -1.0460 C             1 MOL        0.827760
       4 O            1.9150     0.2060    -1.5780 O             1 MOL       -0.607320
       5 CA           3.6720    -0.1310     0.0200 CX            1 MOL        0.099152
       6 C1B          5.0420    -0.0300    -0.6740 CU            1 MOL       -0.541207
       7 C2B          3.2690     1.1950     0.7220 CU            1 MOL        0.296531
       8 CY           3.5120     2.5480     0.0130 CU            1 MOL       -0.108878
       9 CD           2.3020     3.2100    -0.6620 CU            1 MOL        0.117105
      10 CE           1.2180     3.6050     0.3080 CM            1 MOL       -0.249239
      11 CF          -0.0870     3.4180     0.1880 CM            1 MOL       -0.249239
      12 CG          -0.8250     2.7490    -0.9440 CU            1 MOL        0.117105
      13 CH          -1.9930     1.8600    -0.4910 CU            1 MOL       -0.108878
      14 CI          -1.5400     0.7100     0.4190 CU            1 MOL        0.296531
      15 CJ          -2.5500    -0.4160     0.7340 CT            1 MOL        0.099152
      16 C14         -1.9220    -1.3220     1.8090 CT            1 MOL       -0.541207
      17 N2          -3.7900     0.1060     1.3080 N             1 MOL       -0.844023
      18 C15         -4.8620     0.5030     0.5710 C             1 MOL        0.860551
      19 C16         -6.1520     0.6430     1.3510 CT            1 MOL       -0.368728
      20 O2          -4.8080     0.7250    -0.6060 O             1 MOL       -0.621401
      21 C17         -2.9110    -1.3680    -0.4310 C             1 MOL        0.827760
      22 O3          -3.7920    -2.1740    -0.2900 O             1 MOL       -0.607320
      23 N3          -2.1400    -1.3430    -1.5370 N             1 MOL       -0.585222
      24 C18         -2.4860    -2.1610    -2.6800 CT            1 MOL       -0.251593
      25 N            3.8150    -1.1860     1.0370 N             1 MOL       -0.844023
      26 C19          2.7810    -1.6340     1.8020 C             1 MOL        0.860551
      27 C20          3.1770    -2.4480     3.0150 CT            1 MOL       -0.368728
      28 O4           1.6350    -1.4130     1.5270 O             1 MOL       -0.621401
      29 H1           1.7070    -1.8100    -3.2370 H1            1 MOL        0.124048
      30 H2           2.0850    -3.4180    -2.6340 H1            1 MOL        0.124048
      31 H3           0.7750    -2.4860    -1.9060 H1            1 MOL        0.124048
      32 H4           3.2040    -2.4970    -0.8220 H             1 MOL        0.373891
      33 HB1          4.9850     0.5910    -1.5570 HC            1 MOL        0.148918
      34 HB2          5.3870    -1.0110    -0.9790 HC            1 MOL        0.148918
      35 HB3          5.7760     0.4040    -0.0020 HC            1 MOL        0.148918
      36 HB4          2.2340     1.1190     1.0260 HC            1 MOL       -0.045175
      37 HB5          3.8580     1.2020     1.6350 HC            1 MOL       -0.045175
      38 HC1          4.3090     2.4660    -0.7170 HC            1 MOL        0.011438
      39 HC2          3.8870     3.2380     0.7660 HC            1 MOL        0.011438
      40 HD1          2.6650     4.1170    -1.1470 HC            1 MOL        0.010398
      41 HD2          1.9200     2.5680    -1.4390 HC            1 MOL        0.010398
      42 HE           1.5640     4.1380     1.1820 HA            1 MOL        0.122353
      43 HF          -0.7180     3.8130     0.9720 HA            1 MOL        0.122353
      44 HG1         -1.2320     3.5230    -1.5940 HC            1 MOL        0.010398
      45 HG2         -0.1410     2.1660    -1.5480 HC            1 MOL        0.010398
      46 HH1         -2.7280     2.4630     0.0310 HC            1 MOL        0.011438
      47 HH2         -2.5000     1.4850    -1.3700 HC            1 MOL        0.011438
      48 HI1         -1.2460     1.1280     1.3760 HC            1 MOL       -0.045175
      49 HI2         -0.6370     0.2560     0.0230 HC            1 MOL       -0.045175
      50 H22         -0.9710    -1.7140     1.4750 HC            1 MOL        0.148918
      51 H23         -1.7400    -0.7500     2.7140 HC            1 MOL        0.148918
      52 H24         -2.5850    -2.1480     2.0370 HC            1 MOL        0.148918
      53 H25         -4.0040    -0.2330     2.2180 H             1 MOL        0.412169
      54 H26         -6.6280    -0.3310     1.4120 HC            1 MOL        0.098627
      55 H27         -5.9870     1.0090     2.3580 HC            1 MOL        0.098627
      56 H28         -6.8110     1.3160     0.8220 HC            1 MOL        0.098627
      57 H29         -1.5310    -0.5740    -1.6870 H             1 MOL        0.373891
      58 H30         -1.7300    -2.0250    -3.4420 H1            1 MOL        0.124048
      59 H31         -3.4530    -1.8900    -3.0850 H1            1 MOL        0.124048
      60 H32         -2.5170    -3.2040    -2.3960 H1            1 MOL        0.124048
      61 H            4.7280    -1.2810     1.4260 H             1 MOL        0.412169
      62 H34          2.3510    -3.0840     3.2960 HC            1 MOL        0.098627
      63 H35          3.3870    -1.7730     3.8400 HC            1 MOL        0.098627
      64 H36          4.0600    -3.0510     2.8370 HC            1 MOL        0.098627
@<TRIPOS>BOND
       1        1        2 1
       2        1       29 1
       3        1       30 1
       4        1       31 1
       5        2        3 1
       6        2       32 1
       7        3        4 2
       8        3        5 1
       9        5        6 1
      10        5        7 1
      11        5       25 1
      12        6       33 1
      13        6       34 1
      14        6       35 1
      15        7        8 1
      16        7       36 1
      17        7       37 1
      18        8        9 1
      19        8       38 1
      20        8       39 1
      21        9       10 1
      22        9       40 1
      23        9       41 1
      24       10       11 2
      25       10       42 1
      26       11       12 1
      27       11       43 1
      28       12       13 1
      29       12       44 1
      30       12       45 1
      31       13       14 1
      32       13       46 1
      33       13       47 1
      34       14       15 1
      35       14       48 1
      36       14       49 1
      37       15       16 1
      38       15       17 1
      39       15       21 1
      40       16       50 1
      41       16       51 1
      42       16       52 1
      43       17       18 1
      44       17       53 1
      45       18       19 1
      46       18       20 2
      47       19       54 1
      48       19       55 1
      49       19       56 1
      50       21       22 2
      51       21       23 1
      52       23       24 1
      53       23       57 1
      54       24       58 1
      55       24       59 1
      56       24       60 1
      57       25       26 1
      58       25       61 1
      59       26       27 1
      60       26       28 2
      61       27       62 1
      62       27       63 1
      63       27       64 1
@<TRIPOS>SUBSTRUCTURE
       1 MOL             1 RESIDUE    0 **** ROOT      0
