@<TRIPOS>MOLECULE
MOL
   64    63     1     0     0
SMALL
resp


@<TRIPOS>ATOM
      1 C1          -7.6460     0.4370     1.4230 CT         1 MOL      -0.394551
      2 N1          -6.5240     0.1650     0.5500 N          1 MOL      -0.390549
      3 C2          -5.3690     0.8450     0.6670 C          1 MOL       0.657969
      4 O1          -5.2100     1.6990     1.4980 O          1 MOL      -0.586580
      5 C3          -4.2810     0.5340    -0.3920 CT         1 MOL       0.131916
      6 C4          -4.6410     1.4290    -1.5920 CT         1 MOL      -0.293877
      7 C5          -2.8880     0.8940     0.1760 CT         1 MOL      -0.007183
      8 C6          -1.7340     1.1230    -0.8130 CT         1 MOL      -0.005778
      9 C7          -1.2240    -0.0650    -1.6520 CT         1 MOL      -0.189177
     10 C8          -0.7250    -1.2460    -0.8480 CM         1 MOL      -0.125961
     11 C9           0.4790    -1.3950    -0.3190 CM         1 MOL      -0.433371
     12 C10          1.6460    -0.4450    -0.3890 CT         1 MOL       0.513181
     13 C11          2.8650    -1.1050    -1.0520 CT         1 MOL      -0.139101
     14 C12          4.0560    -0.1840    -1.3610 CT         1 MOL      -0.170788
     15 C13          4.8850     0.3710    -0.1750 CT         1 MOL      -0.023531
     16 C14          6.1710     1.0380    -0.7010 CT         1 MOL      -0.638466
     17 N2           4.1390     1.3250     0.6330 N          1 MOL      -0.476647
     18 C15          3.6090     2.4870     0.2060 C          1 MOL       0.768717
     19 C16          2.8640     3.2770     1.2640 CT         1 MOL      -0.220275
     20 O2           3.6770     2.8830    -0.9310 O          1 MOL      -0.632472
     21 C17          5.2590    -0.7640     0.7990 C          1 MOL       0.837202
     22 O3           4.8950    -0.7610     1.9480 O          1 MOL      -0.609093
     23 N3           6.0150    -1.7580     0.3030 N          1 MOL      -0.536558
     24 C18          6.4110    -2.8850     1.1240 CT         1 MOL      -0.524432
     25 N4          -4.3900    -0.8500    -0.8590 N          1 MOL      -0.857224
     26 C19         -4.1740    -2.0310    -0.2060 C          1 MOL       0.835831
     27 C20         -4.0440    -2.0600     1.3020 CT         1 MOL      -0.538759
     28 O4          -4.1050    -3.0530    -0.8330 O          1 MOL      -0.635265
     29 H1          -8.4650    -0.2110     1.1410 H1         1 MOL       0.156307
     30 H2          -7.3880     0.2490     2.4570 H1         1 MOL       0.156307
     31 H3          -7.9650     1.4680     1.3350 H1         1 MOL       0.156307
     32 H4          -6.5980    -0.5440    -0.1400 H          1 MOL       0.331563
     33 H5          -5.6530     1.2330    -1.9280 HC         1 MOL       0.094617
     34 H6          -4.5710     2.4720    -1.3100 HC         1 MOL       0.094617
     35 H7          -3.9690     1.2540    -2.4240 HC         1 MOL       0.094617
     36 H8          -3.0130     1.8070     0.7410 HC         1 MOL       0.032527
     37 H9          -2.5930     0.1390     0.8950 HC         1 MOL       0.032527
     38 H10         -1.9840     1.9370    -1.4870 HC         1 MOL       0.034554
     39 H11         -0.9000     1.4850    -0.2180 HC         1 MOL       0.034554
     40 H12         -0.4280     0.3110    -2.2870 HC         1 MOL       0.094035
     41 H13         -2.0000    -0.4110    -2.3270 HC         1 MOL       0.094035
     42 H14         -1.4270    -2.0510    -0.7110 HA         1 MOL       0.135333
     43 H15          0.6730    -2.3080     0.2240 HA         1 MOL       0.158607
     44 H16          1.3820     0.4550    -0.9340 HC         1 MOL      -0.075775
     45 H17          1.9020    -0.1380     0.6190 HC         1 MOL      -0.075775
     46 H18          2.5420    -1.5250    -2.0010 HC         1 MOL       0.022120
     47 H19          3.1860    -1.9510    -0.4490 HC         1 MOL       0.022120
     48 H20          3.7230     0.6660    -1.9410 HC         1 MOL       0.104332
     49 H21          4.7370    -0.7380    -2.0030 HC         1 MOL       0.104332
     50 H22          5.9090     1.8850    -1.3190 HC         1 MOL       0.185870
     51 H23          6.7680     0.3550    -1.2960 HC         1 MOL       0.185870
     52 H24          6.7780     1.3880     0.1270 HC         1 MOL       0.185870
     53 H25          4.0390     1.0650     1.5890 H          1 MOL       0.285806
     54 H26          3.0070     4.3310     1.0740 HC         1 MOL       0.056543
     55 H27          1.8050     3.0600     1.1760 HC         1 MOL       0.056543
     56 H28          3.1810     3.0410     2.2720 HC         1 MOL       0.056543
     57 H29          6.2790    -1.7480    -0.6530 H          1 MOL       0.370148
     58 H30          5.5470    -3.4420     1.4650 H1         1 MOL       0.202923
     59 H31          7.0390    -3.5360     0.5310 H1         1 MOL       0.202923
     60 H32          6.9660    -2.5510     1.9900 H1         1 MOL       0.202923
     61 H33         -4.3780    -0.9840    -1.8480 H          1 MOL       0.416337
     62 H34         -4.6450    -2.8830     1.6640 HC         1 MOL       0.158222
     63 H35         -4.3330    -1.1540     1.8100 HC         1 MOL       0.158222
     64 H36         -3.0100    -2.2790     1.5440 HC         1 MOL       0.158222
@<TRIPOS>BOND
     1     1     2 1   
     2     1    29 1   
     3     1    30 1   
     4     1    31 1   
     5     2     3 1   
     6     2    32 1   
     7     3     4 2   
     8     3     5 1   
     9     5     6 1   
    10     5     7 1   
    11     5    25 1   
    12     6    33 1   
    13     6    34 1   
    14     6    35 1   
    15     7     8 1   
    16     7    36 1   
    17     7    37 1   
    18     8     9 1   
    19     8    38 1   
    20     8    39 1   
    21     9    10 1   
    22     9    40 1   
    23     9    41 1   
    24    10    11 2   
    25    10    42 1   
    26    11    12 1   
    27    11    43 1   
    28    12    13 1   
    29    12    44 1   
    30    12    45 1   
    31    13    14 1   
    32    13    46 1   
    33    13    47 1   
    34    14    15 1   
    35    14    48 1   
    36    14    49 1   
    37    15    16 1   
    38    15    17 1   
    39    15    21 1   
    40    16    50 1   
    41    16    51 1   
    42    16    52 1   
    43    17    18 1   
    44    17    53 1   
    45    18    19 1   
    46    18    20 2   
    47    19    54 1   
    48    19    55 1   
    49    19    56 1   
    50    21    22 2   
    51    21    23 1   
    52    23    24 1   
    53    23    57 1   
    54    24    58 1   
    55    24    59 1   
    56    24    60 1   
    57    25    26 1   
    58    25    61 1   
    59    26    27 1   
    60    26    28 2   
    61    27    62 1   
    62    27    63 1   
    63    27    64 1   
@<TRIPOS>SUBSTRUCTURE
     1 MOL         1 TEMP              0 ****  ****    0 ROOT
