@<TRIPOS>MOLECULE
MOL
   64    63     1     0     0
SMALL
resp


@<TRIPOS>ATOM
      1 C1           4.7130    -2.5770    -1.6090 CT         1 MOL      -0.340051
      2 N1           3.7600    -1.9040    -0.7540 N          1 MOL      -0.618368
      3 C2           4.1180    -0.8280    -0.0390 C          1 MOL       0.832429
      4 O1           5.2390    -0.3850    -0.0540 O          1 MOL      -0.619457
      5 C3           3.0100    -0.1300     0.7840 CT         1 MOL       0.056469
      6 C4           3.6770     0.7620     1.8320 CT         1 MOL      -0.260357
      7 C5           2.0800     0.6720    -0.1580 CT         1 MOL       0.048597
      8 C6           2.6580     1.8890    -0.9010 CT         1 MOL      -0.030904
      9 C7           2.6120     3.2580    -0.1780 CT         1 MOL       0.070850
     10 C8           1.3930     3.5340     0.6800 CM         1 MOL      -0.232123
     11 C9           0.1230     3.6330     0.3200 CM         1 MOL      -0.232123
     12 C10         -0.4800     3.5130    -1.0590 CT         1 MOL       0.070850
     13 C11         -1.1400     2.1520    -1.3780 CT         1 MOL      -0.030904
     14 C12         -2.0140     1.6150    -0.2360 CT         1 MOL       0.048597
     15 C13         -2.9590     0.4360    -0.5780 CT         1 MOL       0.056469
     16 C14         -4.0500     0.9050    -1.5520 CT         1 MOL      -0.260357
     17 N2          -2.1920    -0.6510    -1.1770 N          1 MOL      -0.728278
     18 C15         -2.7660    -1.8690    -1.4010 C          1 MOL       0.777698
     19 C16         -1.8290    -2.9450    -1.8980 CT         1 MOL      -0.263855
     20 O2          -3.9450    -2.0610    -1.2530 O          1 MOL      -0.611908
     21 C17         -3.4910    -0.0600     0.7910 C          1 MOL       0.832429
     22 O3          -2.7290    -0.5640     1.5760 O          1 MOL      -0.619457
     23 N3          -4.7820     0.1750     1.0970 N          1 MOL      -0.618368
     24 C18         -5.3450    -0.3590     2.3210 CT         1 MOL      -0.340051
     25 N4           2.1980    -1.0970     1.5570 N          1 MOL      -0.728278
     26 C19          1.1930    -1.8870     1.1390 C          1 MOL       0.777698
     27 C20          0.3600    -2.5370     2.2180 CT         1 MOL      -0.263855
     28 O4           0.9350    -2.0780    -0.0330 O          1 MOL      -0.611908
     29 H1           4.2340    -3.4470    -2.0370 H1         1 MOL       0.152883
     30 H2           5.0540    -1.9320    -2.4110 H1         1 MOL       0.152883
     31 H3           5.5780    -2.8950    -1.0420 H1         1 MOL       0.152883
     32 H4           2.8040    -2.1840    -0.7690 H          1 MOL       0.390887
     33 H5           2.9220     1.3150     2.3830 HC         1 MOL       0.080624
     34 H6           4.3610     1.4530     1.3680 HC         1 MOL       0.080624
     35 H7           4.2540     0.1650     2.5300 HC         1 MOL       0.080624
     36 H8           1.2300     0.9830     0.4350 HC         1 MOL       0.006554
     37 H9           1.6980    -0.0150    -0.8980 HC         1 MOL       0.006554
     38 H10          3.6810     1.6990    -1.2100 HC         1 MOL       0.018933
     39 H11          2.0880     1.9840    -1.8190 HC         1 MOL       0.018933
     40 H12          3.4870     3.3670     0.4510 HC         1 MOL       0.019228
     41 H13          2.7060     4.0290    -0.9390 HC         1 MOL       0.019228
     42 H14          1.5990     3.6610     1.7310 HA         1 MOL       0.126413
     43 H15         -0.5870     3.8310     1.1080 HA         1 MOL       0.126413
     44 H16          0.2670     3.7200    -1.8190 HC         1 MOL       0.019228
     45 H17         -1.2370     4.2880    -1.1560 HC         1 MOL       0.019228
     46 H18         -0.3670     1.4280    -1.6090 HC         1 MOL       0.018933
     47 H19         -1.7190     2.2740    -2.2860 HC         1 MOL       0.018933
     48 H20         -2.6410     2.4150     0.1490 HC         1 MOL       0.006554
     49 H21         -1.3760     1.3070     0.5830 HC         1 MOL       0.006554
     50 H22         -4.7690     0.1250    -1.7500 HC         1 MOL       0.080624
     51 H23         -3.5980     1.1760    -2.4960 HC         1 MOL       0.080624
     52 H24         -4.5630     1.7800    -1.1640 HC         1 MOL       0.080624
     53 H25         -1.2170    -0.6760    -0.9700 H          1 MOL       0.384761
     54 H26         -2.3660    -3.8820    -1.9330 HC         1 MOL       0.075748
     55 H27         -0.9590    -3.0340    -1.2600 HC         1 MOL       0.075748
     56 H28         -1.4870    -2.6920    -2.8970 HC         1 MOL       0.075748
     57 H29         -5.4120     0.3220     0.3440 H          1 MOL       0.390887
     58 H30         -5.3810    -1.4420     2.3090 H1         1 MOL       0.152883
     59 H31         -6.3480     0.0300     2.4380 H1         1 MOL       0.152883
     60 H32         -4.7460    -0.0450     3.1640 H1         1 MOL       0.152883
     61 H33          2.3270    -1.0480     2.5410 H          1 MOL       0.384761
     62 H34         -0.6100    -2.0510     2.2240 HC         1 MOL       0.075748
     63 H35          0.7990    -2.4660     3.2050 HC         1 MOL       0.075748
     64 H36          0.2120    -3.5780     1.9620 HC         1 MOL       0.075748
@<TRIPOS>BOND
     1     1     2 1   
     2     1    29 1   
     3     1    30 1   
     4     1    31 1   
     5     2     3 1   
     6     2    32 1   
     7     3     4 2   
     8     3     5 1   
     9     5     6 1   
    10     5     7 1   
    11     5    25 1   
    12     6    33 1   
    13     6    34 1   
    14     6    35 1   
    15     7     8 1   
    16     7    36 1   
    17     7    37 1   
    18     8     9 1   
    19     8    38 1   
    20     8    39 1   
    21     9    10 1   
    22     9    40 1   
    23     9    41 1   
    24    10    11 2   
    25    10    42 1   
    26    11    12 1   
    27    11    43 1   
    28    12    13 1   
    29    12    44 1   
    30    12    45 1   
    31    13    14 1   
    32    13    46 1   
    33    13    47 1   
    34    14    15 1   
    35    14    48 1   
    36    14    49 1   
    37    15    16 1   
    38    15    17 1   
    39    15    21 1   
    40    16    50 1   
    41    16    51 1   
    42    16    52 1   
    43    17    18 1   
    44    17    53 1   
    45    18    19 1   
    46    18    20 2   
    47    19    54 1   
    48    19    55 1   
    49    19    56 1   
    50    21    22 2   
    51    21    23 1   
    52    23    24 1   
    53    23    57 1   
    54    24    58 1   
    55    24    59 1   
    56    24    60 1   
    57    25    26 1   
    58    25    61 1   
    59    26    27 1   
    60    26    28 2   
    61    27    62 1   
    62    27    63 1   
    63    27    64 1   
@<TRIPOS>SUBSTRUCTURE
     1 MOL         1 TEMP              0 ****  ****    0 ROOT
