@<TRIPOS>MOLECULE
ETH
   34    33     4     0     1 
SMALL
USER_CHARGES
@<TRIPOS>ATOM
  1 CY      7.510397    3.115278    0.747714 CT    1 ETH     0.0000 ****
  2 C2      7.015802    3.082987   -0.695245 CT    1 ETH     0.0000 ****
  3 H3      7.230745    2.269544    1.203145 HT    1 ETH     0.0000 ****
  4 H5      8.508766    3.176455    0.754124 HT    1 ETH     0.0000 ****
  5 H6      7.396658    2.282765   -1.159375 HT    1 ETH     0.0000 ****
  6 H7      6.017328    3.028809   -0.704498 HT    1 ETH     0.0000 ****
  7 H8      7.309524    3.913452   -1.167997 HT    1 ETH     0.0000 ****
  8 HH31    1.932563    1.066434   -0.004404 HC    2 ACE     0.1123 ****
  9 CH3     1.922185    2.155915   -0.035537 CT    2 ACE    -0.3662 ****
 10 HH32    1.425989    2.544099    0.853900 HC    2 ACE     0.1123 ****
 11 HH33    1.382484    2.493576   -0.920013 HC    2 ACE     0.1123 ****
 12 C       3.351104    2.677591   -0.084407 C     2 ACE     0.5972 ****
 13 O       4.297870    1.894414   -0.057473 O     2 ACE    -0.5679 ****
 14 C       4.672747    6.110658   -0.005757 C     3 BR1     0.8022 ****
 15 O       3.557289    6.625937   -0.028860 O     3 BR1    -0.6182 ****
 16 CA      4.819690    4.600067    0.117099 CX    3 BR1     0.0809 ****
 17 C1B     5.763263    4.100921   -0.989837 CU    3 BR1    -0.3260 ****
 18 C2B     5.387082    4.273200    1.508727 CU    3 BR1    -0.0687 ****
 19 CY      6.923848    4.312334    1.517538 CU    3 BR1    -0.0140 ****
 20 N       3.508063    4.002137   -0.027279 N     3 BR1    -0.7222 ****
 21 HB1     6.752390    4.564872   -0.887275 HC    3 BR1     0.0966 ****
 22 HB2     5.882909    3.011929   -0.936026 HC    3 BR1     0.0966 ****
 23 HB3     5.363858    4.358760   -1.978624 HC    3 BR1     0.0966 ****
 24 HB4     5.059059    3.270669    1.809140 HC    3 BR1     0.0316 ****
 25 HB5     4.984157    4.980845    2.243360 HC    3 BR1     0.0316 ****
 26 HC1     7.287643    4.291936    2.551872 HC    3 BR1     0.0212 ****
 27 HC2     7.265380    5.251036    1.065130 HC    3 BR1     0.0212 ****
 28 H       2.701319    4.609649   -0.016337 H     3 BR1     0.3539 ****
 29 N       5.800446    6.825033    0.001211 N     4 NME    -0.4157 ****
 30 H       6.694371    6.357412    0.047430 H     4 NME     0.2719 ****
 31 CH3     5.789519    8.274595    0.000150 CT    4 NME    -0.1490 ****
 32 HH31    4.759224    8.630892   -0.000220 H1    4 NME     0.0976 ****
 33 HH32    6.300598    8.643054    0.889781 H1    4 NME     0.0976 ****
 34 HH33    6.300789    8.641028   -0.890141 H1    4 NME     0.0976 ****
@<TRIPOS>BOND
    1     2     5 1
    2     2     6 1
    3     2     7 1
    4     1     2 1
    5     1     3 1
    6     1     4 1
    7     1    19 1
    8     9     8 1
    9    10     9 1
   10    11     9 1
   11    12     9 1
   12    12    20 1
   13    13    12 1
   14    14    29 1
   15    15    14 1
   16    16    14 1
   17    17    16 1
   18    18    16 1
   19    19    18 1
   20    20    16 1
   21    21    17 1
   22    22    17 1
   23    23    17 1
   24    24    18 1
   25    25    18 1
   26    26    19 1
   27    27    19 1
   28    28    20 1
   29    30    29 1
   30    31    29 1
   31    32    31 1
   32    33    31 1
   33    34    31 1
@<TRIPOS>SUBSTRUCTURE
      1  ETH              1 ****               0 ****  **** 
      2  ACE              8 ****               0 ****  **** 
      3  BR1             14 ****               0 ****  **** 
      4  NME             29 ****               0 ****  **** 
