@<TRIPOS>MOLECULE
ETH
   41    40     4     0     1 
SMALL
USER_CHARGES
@<TRIPOS>ATOM
  1 CY      8.084822    5.811153    4.729377 CT    1 ETH     0.0000 ****
  2 C2      8.364305    4.311416    4.687343 CT    1 ETH     0.0000 ****
  3 H3      8.616219    6.266026    4.014659 HT    1 ETH     0.0000 ****
  4 H5      8.357526    6.170825    5.621643 HT    1 ETH     0.0000 ****
  5 H6      7.820612    3.851237    5.389296 HT    1 ETH     0.0000 ****
  6 H7      8.119907    3.951783    3.786848 HT    1 ETH     0.0000 ****
  7 H8      9.336219    4.148763    4.858870 HT    1 ETH     0.0000 ****
  8 HH31    1.916314    1.182626    0.300882 HC    2 ACE     0.1123 ****
  9 CH3     1.965029    2.246730    0.067211 CT    2 ACE    -0.3662 ****
 10 HH32    1.217162    2.787258    0.647921 HC    2 ACE     0.1123 ****
 11 HH33    1.766971    2.397171   -0.994302 HC    2 ACE     0.1123 ****
 12 C       3.349782    2.781738    0.402318 C     2 ACE     0.5972 ****
 13 O       4.111088    2.133869    1.117146 O     2 ACE    -0.5679 ****
 14 C       4.766378    6.061667    0.278348 C     3 BR5     0.8022 ****
 15 O       3.631846    6.533919    0.261102 O     3 BR5    -0.6182 ****
 16 CA      4.977623    4.565710    0.092207 CX    3 BR5     0.0809 ****
 17 C1B     5.905194    4.327152   -1.110561 CU    3 BR5    -0.3260 ****
 18 C2B     5.618137    3.952105    1.349265 CU    3 BR5    -0.0687 ****
 19 CC      7.029489    4.507852    1.609546 CU    3 BR5    -0.0140 ****
 20 CD      6.986688    5.985796    2.031011 CU    3 BR5     0.0785 ****
 21 CE      6.118508    6.177356    3.259566 CM    3 BR5    -0.2384 ****
 22 CY      6.616576    6.088366    4.511756 CM    3 BR5    -0.2684 ****
 23 N       3.691302    3.946022   -0.154446 N     3 BR5    -0.7222 ****
 24 HB1     6.875662    4.813007   -0.951257 HC    3 BR5     0.0966 ****
 25 HB2     6.075585    3.253024   -1.254944 HC    3 BR5     0.0966 ****
 26 HB3     5.459933    4.733183   -2.027274 HC    3 BR5     0.0966 ****
 27 HB4     5.678769    2.864627    1.224087 HC    3 BR5     0.0316 ****
 28 HB5     4.979899    4.143593    2.220727 HC    3 BR5     0.0316 ****
 29 HC1     7.505230    3.921803    2.405308 HC    3 BR5     0.0212 ****
 30 HC2     7.642687    4.395556    0.707103 HC    3 BR5     0.0212 ****
 31 HD1     6.599629    6.590521    1.201579 HC    3 BR5     0.0140 ****
 32 HD2     8.007397    6.333193    2.234116 HC    3 BR5     0.0140 ****
 33 HE      5.068754    6.373377    3.097487 HA    3 BR5     0.1282 ****
 34 HF      5.959434    6.215766    5.359376 HA    3 BR5     0.1328 ****
 35 H       3.033832    4.434518   -0.745096 H     3 BR5     0.3539 ****
 36 N       5.862184    6.818342    0.373115 N     4 NME    -0.4157 ****
 37 H       6.776696    6.390124    0.352060 H     4 NME     0.2719 ****
 38 CH3     5.785005    8.263888    0.433647 CT    4 NME    -0.1490 ****
 39 HH31    4.739230    8.570653    0.447961 H1    4 NME     0.0976 ****
 40 HH32    6.278876    8.617082    1.338670 H1    4 NME     0.0976 ****
 41 HH33    6.276004    8.692068   -0.440125 H1    4 NME     0.0976 ****
@<TRIPOS>BOND
    1     2     5 1
    2     2     6 1
    3     2     7 1
    4     1     2 1
    5     1     3 1
    6     1     4 1
    7     1    22 1
    8     9     8 1
    9    10     9 1
   10    11     9 1
   11    12     9 1
   12    12    23 1
   13    13    12 1
   14    14    36 1
   15    15    14 1
   16    16    14 1
   17    17    16 1
   18    18    16 1
   19    19    18 1
   20    20    19 1
   21    21    20 1
   22    22    21 1
   23    23    16 1
   24    24    17 1
   25    25    17 1
   26    26    17 1
   27    27    18 1
   28    28    18 1
   29    29    19 1
   30    30    19 1
   31    31    20 1
   32    32    20 1
   33    33    21 1
   34    34    22 1
   35    35    23 1
   36    37    36 1
   37    38    36 1
   38    39    38 1
   39    40    38 1
   40    41    38 1
@<TRIPOS>SUBSTRUCTURE
      1  ETH              1 ****               0 ****  **** 
      2  ACE              8 ****               0 ****  **** 
      3  BR5             14 ****               0 ****  **** 
      4  NME             36 ****               0 ****  **** 
