@<TRIPOS>MOLECULE
MOL
   64    63     1     0     1 
SMALL
USER_CHARGES
@<TRIPOS>ATOM
  1 C1      0.000000    0.000000    0.000000 CT    1 MOL    -0.3208 ****
  2 N1      1.448187    0.000000    0.000000 N     1 MOL    -0.5622 ****
  3 C       2.123200    0.475920    1.072365 C     1 MOL     0.8053 ****
  4 O       1.590179    0.696732    2.124447 O     1 MOL    -0.6151 ****
  5 CA      3.650505    0.594143    0.921539 CX    1 MOL     0.0839 ****
  6 C1B     4.198902    1.549248    1.986845 CU    1 MOL    -0.3230 ****
  7 C2B     4.307751   -0.809116    1.023981 CU    1 MOL    -0.0657 ****
  8 CC      5.615074   -1.079387    0.257500 CU    1 MOL    -0.0109 ****
  9 CD      6.935010   -0.626681    0.912833 CU    1 MOL     0.0816 ****
 10 CE      7.169351   -1.206944    2.287845 CM    1 MOL    -0.2354 ****
 11 CF      7.916627   -2.251697    2.605374 CM    1 MOL    -0.2653 ****
 12 CY      8.720001   -3.123925    1.670728 CU    1 MOL     0.1214 ****
 13 CH     10.231647   -2.833285    1.675191 CU    1 MOL    -0.0354 ****
 14 CI     10.873892   -3.057498    3.050751 CU    1 MOL    -0.0984 ****
 15 CJ     12.418753   -2.973429    3.155556 CU    1 MOL     0.1300 ****
 16 C1K    12.795802   -3.171163    4.632778 CU    1 MOL    -0.3561 ****
 17 N2K    12.996854   -4.047424    2.359399 N     1 MOL    -0.7186 ****
 18 C15    14.342614   -4.133835    2.148401 C     1 MOL     0.8537 ****
 19 C16    14.753129   -5.048343    1.017048 CT    1 MOL    -0.3868 ****
 20 O2     15.145024   -3.532725    2.807146 O     1 MOL    -0.6323 ****
 21 C3K    12.879526   -1.625080    2.556916 C     1 MOL     0.7903 ****
 22 OF     13.032152   -1.509324    1.370646 O     1 MOL    -0.6136 ****
 23 N3     12.998485   -0.577675    3.401174 N     1 MOL    -0.5650 ****
 24 C18    13.474696    0.700998    2.914945 CT    1 MOL    -0.3231 ****
 25 N       3.997412    1.070275   -0.425452 N     1 MOL    -0.7191 ****
 26 C19     3.587019    2.267163   -0.934086 C     1 MOL     0.8539 ****
 27 C20     4.328148    2.727659   -2.172145 CT    1 MOL    -0.3903 ****
 28 O4      2.697134    2.905425   -0.447397 O     1 MOL    -0.6290 ****
 29 H1     -0.403259    1.006147    0.000000 H1    1 MOL     0.1459 ****
 30 H2     -0.364960   -0.516002    0.875939 H1    1 MOL     0.1459 ****
 31 H3     -0.345658   -0.522086   -0.883346 H1    1 MOL     0.1459 ****
 32 H4      1.904244    0.070913   -0.879357 H     1 MOL     0.3572 ****
 33 HB1     3.932135    1.221760    2.980082 HC    1 MOL     0.0997 ****
 34 HB2     5.280920    1.595925    1.907500 HC    1 MOL     0.0997 ****
 35 HB3     3.792711    2.540594    1.848395 HC    1 MOL     0.0997 ****
 36 HB4     3.565141   -1.508615    0.646550 HC    1 MOL     0.0347 ****
 37 HB5     4.445436   -1.048892    2.073663 HC    1 MOL     0.0347 ****
 38 HC1     5.672738   -2.154947    0.117986 HC    1 MOL     0.0243 ****
 39 HC2     5.557698   -0.649415   -0.737089 HC    1 MOL     0.0243 ****
 40 HD1     6.967648    0.453378    0.974244 HC    1 MOL     0.0171 ****
 41 HD2     7.739064   -0.912718    0.243868 HC    1 MOL     0.0171 ****
 42 HE      6.665662   -0.696772    3.092914 HA    1 MOL     0.1313 ****
 43 HF      7.970359   -2.520555    3.648729 HA    1 MOL     0.1359 ****
 44 HG1     8.357741   -3.020066    0.655126 HC    1 MOL     0.0092 ****
 45 HG2     8.558461   -4.165662    1.945106 HC    1 MOL     0.0092 ****
 46 HH1    10.692772   -3.469735    0.925078 HC    1 MOL     0.0318 ****
 47 HH2    10.401054   -1.816067    1.347475 HC    1 MOL     0.0318 ****
 48 HI1    10.591218   -4.038906    3.425542 HC    1 MOL     0.0435 ****
 49 HI2    10.467554   -2.331373    3.744999 HC    1 MOL     0.0435 ****
 50 HK1    12.524139   -4.177831    4.928413 HC    1 MOL     0.1066 ****
 51 HK2    12.249709   -2.486051    5.272921 HC    1 MOL     0.1066 ****
 52 HK3    13.856245   -3.047455    4.793701 HC    1 MOL     0.1066 ****
 53 HK     12.436351   -4.362894    1.601094 H     1 MOL     0.3529 ****
 54 H26    15.781773   -5.343858    1.157132 HC    1 MOL     0.1047 ****
 55 H27    14.672188   -4.500726    0.082869 HC    1 MOL     0.1047 ****
 56 H28    14.122517   -5.928553    0.954284 HC    1 MOL     0.1047 ****
 57 H29    13.101206   -0.761694    4.371172 H     1 MOL     0.3615 ****
 58 H30    13.382005    1.429210    3.709952 H1    1 MOL     0.1469 ****
 59 H31    12.874629    1.018257    2.074770 H1    1 MOL     0.1469 ****
 60 H32    14.510905    0.650180    2.596445 H1    1 MOL     0.1469 ****
 61 H       4.828120    0.684785   -0.816437 H     1 MOL     0.3570 ****
 62 H34     3.710173    3.434604   -2.706288 HC    1 MOL     0.1060 ****
 63 H35     4.588171    1.902533   -2.825678 HC    1 MOL     0.1060 ****
 64 H36     5.244771    3.226201   -1.873716 HC    1 MOL     0.1060 ****
@<TRIPOS>BOND
    1     1     2 1
    2     1    29 1
    3     1    30 1
    4     1    31 1
    5     2     3 1
    6     2    32 1
    7     3     4 1
    8     3     5 1
    9     5     6 1
   10     5     7 1
   11     5    25 1
   12     6    33 1
   13     6    34 1
   14     6    35 1
   15     7     8 1
   16     7    36 1
   17     7    37 1
   18     8     9 1
   19     8    38 1
   20     8    39 1
   21     9    10 1
   22     9    40 1
   23     9    41 1
   24    10    11 1
   25    10    42 1
   26    11    12 1
   27    11    43 1
   28    12    13 1
   29    12    44 1
   30    12    45 1
   31    13    14 1
   32    13    46 1
   33    13    47 1
   34    14    15 1
   35    14    48 1
   36    14    49 1
   37    15    16 1
   38    15    17 1
   39    15    21 1
   40    16    50 1
   41    16    51 1
   42    16    52 1
   43    17    18 1
   44    17    53 1
   45    18    19 1
   46    18    20 1
   47    19    54 1
   48    19    55 1
   49    19    56 1
   50    21    22 1
   51    21    23 1
   52    23    24 1
   53    23    57 1
   54    24    58 1
   55    24    59 1
   56    24    60 1
   57    25    26 1
   58    25    61 1
   59    26    27 1
   60    26    28 1
   61    27    62 1
   62    27    63 1
   63    27    64 1
@<TRIPOS>SUBSTRUCTURE
      1  MOL              1 ****               0 ****  **** 
