@<TRIPOS>MOLECULE
MOL
   64    63     1     0     1 
SMALL
USER_CHARGES
@<TRIPOS>ATOM
  1 C1      0.000000    0.000000    0.000000 CT    1 MOL    -0.3208 ****
  2 N1      1.448187    0.000000    0.000000 N     1 MOL    -0.5622 ****
  3 C       2.123200    0.475920    1.072365 C     1 MOL     0.8053 ****
  4 O       1.590179    0.696732    2.124447 O     1 MOL    -0.6151 ****
  5 CA      3.650505    0.594143    0.921539 CX    1 MOL     0.0839 ****
  6 C1B     4.198902    1.549248    1.986845 CU    1 MOL    -0.3230 ****
  7 C2B     4.307751   -0.809116    1.023981 CU    1 MOL    -0.0657 ****
  8 CC      5.312314   -1.244239   -0.058217 CU    1 MOL    -0.0109 ****
  9 CD      6.770318   -0.764260    0.084897 CU    1 MOL     0.0816 ****
 10 CE      7.420619   -1.154701    1.391397 CM    1 MOL    -0.2354 ****
 11 CF      8.230095   -2.177168    1.615154 CM    1 MOL    -0.2653 ****
 12 CY      8.703704   -3.208332    0.619088 CU    1 MOL     0.1214 ****
 13 CH     10.141757   -2.989248    0.115529 CU    1 MOL    -0.0354 ****
 14 CI     11.179761   -3.046112    1.244347 CU    1 MOL    -0.0984 ****
 15 CJ     12.680668   -3.018664    0.855540 CU    1 MOL     0.1300 ****
 16 C1K    13.498182   -3.022892    2.157501 CU    1 MOL    -0.3561 ****
 17 N2K    12.983292   -4.219535    0.088821 N     1 MOL    -0.7186 ****
 18 C15    14.196907   -4.396177   -0.510338 C     1 MOL     0.8537 ****
 19 C16    14.236003   -5.478994   -1.564275 CT    1 MOL    -0.3868 ****
 20 O2     15.163991   -3.745341   -0.226958 O     1 MOL    -0.6323 ****
 21 C3K    12.931933   -1.790761   -0.048807 C     1 MOL     0.7903 ****
 22 OF     12.708324   -1.850700   -1.227932 O     1 MOL    -0.6136 ****
 23 N3     13.306822   -0.641199    0.552813 N     1 MOL    -0.5650 ****
 24 C18    13.607726    0.532963   -0.240283 CT    1 MOL    -0.3231 ****
 25 N       3.997412    1.070275   -0.425452 N     1 MOL    -0.7191 ****
 26 C19     3.587019    2.267163   -0.934086 C     1 MOL     0.8539 ****
 27 C20     4.328148    2.727659   -2.172145 CT    1 MOL    -0.3903 ****
 28 O4      2.697134    2.905425   -0.447397 O     1 MOL    -0.6290 ****
 29 H1     -0.403259    1.006147    0.000000 H1    1 MOL     0.1459 ****
 30 H2     -0.364960   -0.516002    0.875939 H1    1 MOL     0.1459 ****
 31 H3     -0.345658   -0.522086   -0.883346 H1    1 MOL     0.1459 ****
 32 H4      1.904244    0.070913   -0.879357 H     1 MOL     0.3572 ****
 33 HB1     3.932135    1.221760    2.980082 HC    1 MOL     0.0997 ****
 34 HB2     5.280920    1.595925    1.907500 HC    1 MOL     0.0997 ****
 35 HB3     3.792711    2.540594    1.848395 HC    1 MOL     0.0997 ****
 36 HB4     3.484972   -1.520270    1.001239 HC    1 MOL     0.0347 ****
 37 HB5     4.764918   -0.904351    2.003884 HC    1 MOL     0.0347 ****
 38 HC1     5.324311   -2.330223   -0.047522 HC    1 MOL     0.0243 ****
 39 HC2     4.948505   -0.956801   -1.039236 HC    1 MOL     0.0243 ****
 40 HD1     6.819881    0.311028   -0.027636 HC    1 MOL     0.0171 ****
 41 HD2     7.326837   -1.178248   -0.748611 HC    1 MOL     0.0171 ****
 42 HE      7.191777   -0.513551    2.227263 HA    1 MOL     0.1313 ****
 43 HF      8.605513   -2.298225    2.619230 HA    1 MOL     0.1359 ****
 44 HG1     8.043737   -3.232453   -0.239591 HC    1 MOL     0.0092 ****
 45 HG2     8.635944   -4.192441    1.081183 HC    1 MOL     0.0092 ****
 46 HH1    10.347283   -3.745579   -0.636864 HC    1 MOL     0.0318 ****
 47 HH2    10.200432   -2.037274   -0.395482 HC    1 MOL     0.0318 ****
 48 HI1    11.028035   -3.950858    1.829109 HC    1 MOL     0.0435 ****
 49 HI2    11.008904   -2.211483    1.914087 HC    1 MOL     0.0435 ****
 50 HK1    13.332338   -3.964295    2.668224 HC    1 MOL     0.1066 ****
 51 HK2    13.177697   -2.230083    2.825426 HC    1 MOL     0.1066 ****
 52 HK3    14.556071   -2.926221    1.964459 HC    1 MOL     0.1066 ****
 53 HK     12.215059   -4.612982   -0.404870 H     1 MOL     0.3529 ****
 54 H26    15.257402   -5.798398   -1.704939 HC    1 MOL     0.1047 ****
 55 H27    13.868508   -5.065611   -2.498719 HC    1 MOL     0.1047 ****
 56 H28    13.617547   -6.329553   -1.298860 HC    1 MOL     0.1047 ****
 57 H29    13.705967   -0.690945    1.460292 H     1 MOL     0.3615 ****
 58 H30    13.766298    1.369568    0.427451 H1    1 MOL     0.1469 ****
 59 H31    12.776131    0.755494   -0.892630 H1    1 MOL     0.1469 ****
 60 H32    14.493692    0.390471   -0.850621 H1    1 MOL     0.1469 ****
 61 H       4.828120    0.684785   -0.816437 H     1 MOL     0.3570 ****
 62 H34     3.710173    3.434604   -2.706288 HC    1 MOL     0.1060 ****
 63 H35     4.588171    1.902533   -2.825678 HC    1 MOL     0.1060 ****
 64 H36     5.244771    3.226201   -1.873716 HC    1 MOL     0.1060 ****
@<TRIPOS>BOND
    1     1     2 1
    2     1    29 1
    3     1    30 1
    4     1    31 1
    5     2     3 1
    6     2    32 1
    7     3     4 1
    8     3     5 1
    9     5     6 1
   10     5     7 1
   11     5    25 1
   12     6    33 1
   13     6    34 1
   14     6    35 1
   15     7     8 1
   16     7    36 1
   17     7    37 1
   18     8     9 1
   19     8    38 1
   20     8    39 1
   21     9    10 1
   22     9    40 1
   23     9    41 1
   24    10    11 1
   25    10    42 1
   26    11    12 1
   27    11    43 1
   28    12    13 1
   29    12    44 1
   30    12    45 1
   31    13    14 1
   32    13    46 1
   33    13    47 1
   34    14    15 1
   35    14    48 1
   36    14    49 1
   37    15    16 1
   38    15    17 1
   39    15    21 1
   40    16    50 1
   41    16    51 1
   42    16    52 1
   43    17    18 1
   44    17    53 1
   45    18    19 1
   46    18    20 1
   47    19    54 1
   48    19    55 1
   49    19    56 1
   50    21    22 1
   51    21    23 1
   52    23    24 1
   53    23    57 1
   54    24    58 1
   55    24    59 1
   56    24    60 1
   57    25    26 1
   58    25    61 1
   59    26    27 1
   60    26    28 1
   61    27    62 1
   62    27    63 1
   63    27    64 1
@<TRIPOS>SUBSTRUCTURE
      1  MOL              1 ****               0 ****  **** 
