@<TRIPOS>MOLECULE
MOL
   64    63     1     0     1 
SMALL
USER_CHARGES
@<TRIPOS>ATOM
  1 C1      0.000000    0.000000    0.000000 CT    1 MOL    -0.3208 ****
  2 N1      1.448187    0.000000    0.000000 N     1 MOL    -0.5622 ****
  3 C       2.123200    0.475920    1.072365 C     1 MOL     0.8053 ****
  4 O       1.590179    0.696732    2.124447 O     1 MOL    -0.6151 ****
  5 CA      3.650505    0.594143    0.921539 CX    1 MOL     0.0839 ****
  6 C1B     4.198902    1.549248    1.986845 CU    1 MOL    -0.3230 ****
  7 C2B     4.307751   -0.809116    1.023981 CU    1 MOL    -0.0657 ****
  8 CC      5.723381   -1.014229    0.455164 CU    1 MOL    -0.0109 ****
  9 CD      6.916489   -0.604089    1.341119 CU    1 MOL     0.0816 ****
 10 CE      6.942753   -1.283711    2.690083 CM    1 MOL    -0.2354 ****
 11 CF      7.649059   -2.344957    3.044546 CM    1 MOL    -0.2653 ****
 12 CY      8.603734   -3.140683    2.187125 CU    1 MOL     0.1214 ****
 13 CH     10.090812   -2.842652    2.450454 CU    1 MOL    -0.0354 ****
 14 CI     10.513660   -3.164954    3.889979 CU    1 MOL    -0.0984 ****
 15 CJ     12.021403   -3.080195    4.242363 CU    1 MOL     0.1300 ****
 16 C1K    12.165997   -3.385153    5.742211 CU    1 MOL    -0.3561 ****
 17 N2K    12.735426   -4.088701    3.471248 N     1 MOL    -0.7186 ****
 18 C15    14.098913   -4.151577    3.468905 C     1 MOL     0.8537 ****
 19 C16    14.697141   -4.977047    2.352872 CT    1 MOL    -0.3868 ****
 20 O2     14.777853   -3.596622    4.287567 O     1 MOL    -0.6323 ****
 21 C3K    12.546830   -1.688466    3.823148 C     1 MOL     0.7903 ****
 22 OF     12.881190   -1.483914    2.687238 O     1 MOL    -0.6136 ****
 23 N3     12.514106   -0.706121    4.749381 N     1 MOL    -0.5650 ****
 24 C18    13.038391    0.607851    4.438246 CT    1 MOL    -0.3231 ****
 25 N       3.997412    1.070275   -0.425452 N     1 MOL    -0.7191 ****
 26 C19     3.587019    2.267163   -0.934086 C     1 MOL     0.8539 ****
 27 C20     4.328148    2.727659   -2.172145 CT    1 MOL    -0.3903 ****
 28 O4      2.697134    2.905425   -0.447397 O     1 MOL    -0.6290 ****
 29 H1     -0.403259    1.006147    0.000000 H1    1 MOL     0.1459 ****
 30 H2     -0.364960   -0.516002    0.875939 H1    1 MOL     0.1459 ****
 31 H3     -0.345658   -0.522086   -0.883346 H1    1 MOL     0.1459 ****
 32 H4      1.904244    0.070913   -0.879357 H     1 MOL     0.3572 ****
 33 HB1     3.932135    1.221760    2.980082 HC    1 MOL     0.0997 ****
 34 HB2     5.280920    1.595925    1.907500 HC    1 MOL     0.0997 ****
 35 HB3     3.792711    2.540594    1.848395 HC    1 MOL     0.0997 ****
 36 HB4     3.645543   -1.482777    0.484645 HC    1 MOL     0.0347 ****
 37 HB5     4.283597   -1.125542    2.062043 HC    1 MOL     0.0347 ****
 38 HC1     5.820728   -2.076086    0.248762 HC    1 MOL     0.0243 ****
 39 HC2     5.814939   -0.511784   -0.502197 HC    1 MOL     0.0243 ****
 40 HD1     6.920463    0.468575    1.485134 HC    1 MOL     0.0171 ****
 41 HD2     7.820139   -0.835021    0.788017 HC    1 MOL     0.0171 ****
 42 HE      6.310555   -0.837700    3.440758 HA    1 MOL     0.1313 ****
 43 HF      7.543491   -2.690387    4.061057 HA    1 MOL     0.1359 ****
 44 HG1     8.403127   -2.963599    1.137428 HC    1 MOL     0.0092 ****
 45 HG2     8.419258   -4.200841    2.356320 HC    1 MOL     0.0092 ****
 46 HH1    10.674558   -3.418918    1.738040 HC    1 MOL     0.0318 ****
 47 HH2    10.291827   -1.802931    2.228185 HC    1 MOL     0.0318 ****
 48 HI1    10.192805   -4.173106    4.143389 HC    1 MOL     0.0435 ****
 49 HI2     9.991212   -2.494798    4.562503 HC    1 MOL     0.0435 ****
 50 HK1    11.868838   -4.412543    5.917561 HC    1 MOL     0.1066 ****
 51 HK2    11.514711   -2.752659    6.336482 HC    1 MOL     0.1066 ****
 52 HK3    13.185897   -3.267776    6.076526 HC    1 MOL     0.1066 ****
 53 HK     12.306025   -4.350039    2.613326 H     1 MOL     0.3529 ****
 54 H26    15.696137   -5.276353    2.631229 HC    1 MOL     0.1047 ****
 55 H27    14.753942   -4.361912    1.459839 HC    1 MOL     0.1047 ****
 56 H28    14.099412   -5.853694    2.127948 HC    1 MOL     0.1047 ****
 57 H29    12.466930   -0.961213    5.707510 H     1 MOL     0.3615 ****
 58 H30    12.809874    1.274363    5.259504 H1    1 MOL     0.1469 ****
 59 H31    12.571807    0.983346    3.539398 H1    1 MOL     0.1469 ****
 60 H32    14.112396    0.586720    4.283908 H1    1 MOL     0.1469 ****
 61 H       4.828120    0.684785   -0.816437 H     1 MOL     0.3570 ****
 62 H34     3.710173    3.434604   -2.706288 HC    1 MOL     0.1060 ****
 63 H35     4.588171    1.902533   -2.825678 HC    1 MOL     0.1060 ****
 64 H36     5.244771    3.226201   -1.873716 HC    1 MOL     0.1060 ****
@<TRIPOS>BOND
    1     1     2 1
    2     1    29 1
    3     1    30 1
    4     1    31 1
    5     2     3 1
    6     2    32 1
    7     3     4 1
    8     3     5 1
    9     5     6 1
   10     5     7 1
   11     5    25 1
   12     6    33 1
   13     6    34 1
   14     6    35 1
   15     7     8 1
   16     7    36 1
   17     7    37 1
   18     8     9 1
   19     8    38 1
   20     8    39 1
   21     9    10 1
   22     9    40 1
   23     9    41 1
   24    10    11 1
   25    10    42 1
   26    11    12 1
   27    11    43 1
   28    12    13 1
   29    12    44 1
   30    12    45 1
   31    13    14 1
   32    13    46 1
   33    13    47 1
   34    14    15 1
   35    14    48 1
   36    14    49 1
   37    15    16 1
   38    15    17 1
   39    15    21 1
   40    16    50 1
   41    16    51 1
   42    16    52 1
   43    17    18 1
   44    17    53 1
   45    18    19 1
   46    18    20 1
   47    19    54 1
   48    19    55 1
   49    19    56 1
   50    21    22 1
   51    21    23 1
   52    23    24 1
   53    23    57 1
   54    24    58 1
   55    24    59 1
   56    24    60 1
   57    25    26 1
   58    25    61 1
   59    26    27 1
   60    26    28 1
   61    27    62 1
   62    27    63 1
   63    27    64 1
@<TRIPOS>SUBSTRUCTURE
      1  MOL              1 ****               0 ****  **** 
