@<TRIPOS>MOLECULE
MOL
   64    63     1     0     1 
SMALL
USER_CHARGES
@<TRIPOS>ATOM
  1 C1      0.000000    0.000000    0.000000 CT    1 MOL    -0.3208 ****
  2 N1      1.448187    0.000000    0.000000 N     1 MOL    -0.5622 ****
  3 C       2.123200    0.475920    1.072365 C     1 MOL     0.8053 ****
  4 O       1.590179    0.696732    2.124447 O     1 MOL    -0.6151 ****
  5 CA      3.650505    0.594143    0.921539 CX    1 MOL     0.0839 ****
  6 C1B     4.198902    1.549248    1.986845 CU    1 MOL    -0.3230 ****
  7 C2B     4.307751   -0.809116    1.023981 CU    1 MOL    -0.0657 ****
  8 CC      4.295298   -1.731538   -0.208340 CU    1 MOL    -0.0109 ****
  9 CD      5.384952   -1.512523   -1.276667 CU    1 MOL     0.0816 ****
 10 CE      6.795580   -1.603312   -0.743596 CM    1 MOL    -0.2354 ****
 11 CF      7.612825   -2.642476   -0.798409 CM    1 MOL    -0.2653 ****
 12 CY      7.336896   -3.996420   -1.407058 CU    1 MOL     0.1214 ****
 13 CH      7.980822   -4.213356   -2.788313 CU    1 MOL    -0.0354 ****
 14 CI      9.511988   -4.118811   -2.749488 CU    1 MOL    -0.0984 ****
 15 CJ     10.297410   -4.491825   -4.033473 CU    1 MOL     0.1300 ****
 16 C1K    11.789788   -4.254382   -3.750844 CU    1 MOL    -0.3561 ****
 17 N2K    10.076286   -5.902881   -4.319057 N     1 MOL    -0.7186 ****
 18 C15    10.528519   -6.476564   -5.472066 C     1 MOL     0.8537 ****
 19 C16     9.909299   -7.814988   -5.803715 CT    1 MOL    -0.3868 ****
 20 O2     11.354990   -5.963527   -6.174122 O     1 MOL    -0.6323 ****
 21 C3K     9.734282   -3.665365   -5.211851 C     1 MOL     0.7903 ****
 22 OF      8.753437   -4.036707   -5.798347 O     1 MOL    -0.6136 ****
 23 N3     10.322741   -2.479061   -5.477145 N     1 MOL    -0.5650 ****
 24 C18     9.877442   -1.678408   -6.599137 CT    1 MOL    -0.3231 ****
 25 N       3.997412    1.070275   -0.425452 N     1 MOL    -0.7191 ****
 26 C19     3.587019    2.267163   -0.934086 C     1 MOL     0.8539 ****
 27 C20     4.328148    2.727659   -2.172145 CT    1 MOL    -0.3903 ****
 28 O4      2.697134    2.905425   -0.447397 O     1 MOL    -0.6290 ****
 29 H1     -0.403259    1.006147    0.000000 H1    1 MOL     0.1459 ****
 30 H2     -0.364960   -0.516002    0.875939 H1    1 MOL     0.1459 ****
 31 H3     -0.345658   -0.522086   -0.883346 H1    1 MOL     0.1459 ****
 32 H4      1.904244    0.070913   -0.879357 H     1 MOL     0.3572 ****
 33 HB1     3.932135    1.221760    2.980082 HC    1 MOL     0.0997 ****
 34 HB2     5.280920    1.595925    1.907500 HC    1 MOL     0.0997 ****
 35 HB3     3.792711    2.540594    1.848395 HC    1 MOL     0.0997 ****
 36 HB4     3.771479   -1.326572    1.816366 HC    1 MOL     0.0347 ****
 37 HB5     5.327134   -0.686835    1.376380 HC    1 MOL     0.0347 ****
 38 HC1     4.404767   -2.745353    0.165580 HC    1 MOL     0.0243 ****
 39 HC2     3.324570   -1.692023   -0.691557 HC    1 MOL     0.0243 ****
 40 HD1     5.248405   -0.551072   -1.754508 HC    1 MOL     0.0171 ****
 41 HD2     5.228643   -2.256013   -2.050375 HC    1 MOL     0.0171 ****
 42 HE      7.165584   -0.708156   -0.270408 HA    1 MOL     0.1313 ****
 43 HF      8.593627   -2.521704   -0.365740 HA    1 MOL     0.1359 ****
 44 HG1     6.269575   -4.155561   -1.501752 HC    1 MOL     0.0092 ****
 45 HG2     7.698191   -4.763373   -0.723068 HC    1 MOL     0.0092 ****
 46 HH1     7.662866   -5.186495   -3.152013 HC    1 MOL     0.0318 ****
 47 HH2     7.581524   -3.489549   -3.486521 HC    1 MOL     0.0318 ****
 48 HI1     9.893242   -4.758731   -1.956594 HC    1 MOL     0.0435 ****
 49 HI2     9.789670   -3.104031   -2.489750 HC    1 MOL     0.0435 ****
 50 HK1    12.112229   -4.948342   -2.983360 HC    1 MOL     0.1066 ****
 51 HK2    11.964042   -3.251229   -3.375744 HC    1 MOL     0.1066 ****
 52 HK3    12.393602   -4.420501   -4.630363 HC    1 MOL     0.1066 ****
 53 HK      9.220525   -6.276319   -3.977107 H     1 MOL     0.3529 ****
 54 H26    10.559916   -8.347218   -6.480834 HC    1 MOL     0.1047 ****
 55 H27     8.957827   -7.642983   -6.297923 HC    1 MOL     0.1047 ****
 56 H28     9.731776   -8.413662   -4.916891 HC    1 MOL     0.1047 ****
 57 H29    11.246346   -2.325352   -5.147543 H     1 MOL     0.3615 ****
 58 H30    10.386376   -0.724041   -6.566124 H1    1 MOL     0.1469 ****
 59 H31     8.812471   -1.512442   -6.529010 H1    1 MOL     0.1469 ****
 60 H32    10.087314   -2.162249   -7.547613 H1    1 MOL     0.1469 ****
 61 H       4.828120    0.684785   -0.816437 H     1 MOL     0.3570 ****
 62 H34     3.710173    3.434604   -2.706288 HC    1 MOL     0.1060 ****
 63 H35     4.588171    1.902533   -2.825678 HC    1 MOL     0.1060 ****
 64 H36     5.244771    3.226201   -1.873716 HC    1 MOL     0.1060 ****
@<TRIPOS>BOND
    1     1     2 1
    2     1    29 1
    3     1    30 1
    4     1    31 1
    5     2     3 1
    6     2    32 1
    7     3     4 1
    8     3     5 1
    9     5     6 1
   10     5     7 1
   11     5    25 1
   12     6    33 1
   13     6    34 1
   14     6    35 1
   15     7     8 1
   16     7    36 1
   17     7    37 1
   18     8     9 1
   19     8    38 1
   20     8    39 1
   21     9    10 1
   22     9    40 1
   23     9    41 1
   24    10    11 1
   25    10    42 1
   26    11    12 1
   27    11    43 1
   28    12    13 1
   29    12    44 1
   30    12    45 1
   31    13    14 1
   32    13    46 1
   33    13    47 1
   34    14    15 1
   35    14    48 1
   36    14    49 1
   37    15    16 1
   38    15    17 1
   39    15    21 1
   40    16    50 1
   41    16    51 1
   42    16    52 1
   43    17    18 1
   44    17    53 1
   45    18    19 1
   46    18    20 1
   47    19    54 1
   48    19    55 1
   49    19    56 1
   50    21    22 1
   51    21    23 1
   52    23    24 1
   53    23    57 1
   54    24    58 1
   55    24    59 1
   56    24    60 1
   57    25    26 1
   58    25    61 1
   59    26    27 1
   60    26    28 1
   61    27    62 1
   62    27    63 1
   63    27    64 1
@<TRIPOS>SUBSTRUCTURE
      1  MOL              1 ****               0 ****  **** 
