@<TRIPOS>MOLECULE
MOL
   64    63     1     0     1 
SMALL
USER_CHARGES
@<TRIPOS>ATOM
  1 C1      0.000000    0.000000    0.000000 CT    1 MOL    -0.3208 ****
  2 N1      1.448187    0.000000    0.000000 N     1 MOL    -0.5622 ****
  3 C       2.123200    0.475920    1.072365 C     1 MOL     0.8053 ****
  4 O       1.590179    0.696732    2.124447 O     1 MOL    -0.6151 ****
  5 CA      3.650505    0.594143    0.921539 CX    1 MOL     0.0839 ****
  6 C1B     4.198902    1.549248    1.986845 CU    1 MOL    -0.3230 ****
  7 C2B     4.307751   -0.809116    1.023981 CU    1 MOL    -0.0657 ****
  8 CC      4.504222   -1.637355   -0.258615 CU    1 MOL    -0.0109 ****
  9 CD      5.743686   -1.333317   -1.123443 CU    1 MOL     0.0816 ****
 10 CE      7.054870   -1.455550   -0.383083 CM    1 MOL    -0.2354 ****
 11 CF      7.888442   -2.483126   -0.383915 CM    1 MOL    -0.2653 ****
 12 CY      7.734576   -3.789570   -1.125051 CU    1 MOL     0.1214 ****
 13 CH      8.590367   -3.899504   -2.399846 CU    1 MOL    -0.0354 ****
 14 CI     10.094729   -3.799467   -2.113838 CU    1 MOL    -0.0984 ****
 15 CJ     11.077724   -4.071482   -3.281903 CU    1 MOL     0.1300 ****
 16 C1K    12.503164   -3.847303   -2.751509 CU    1 MOL    -0.3561 ****
 17 N2K    10.928410   -5.458605   -3.700382 N     1 MOL    -0.7186 ****
 18 C15    11.565340   -5.942354   -4.806440 C     1 MOL     0.8537 ****
 19 C16    11.028849   -7.255869   -5.327651 CT    1 MOL    -0.3868 ****
 20 O2     12.482509   -5.373850   -5.330603 O     1 MOL    -0.6323 ****
 21 C3K    10.691752   -3.162834   -4.471066 C     1 MOL     0.7903 ****
 22 OF      9.821330   -3.495044   -5.229967 O     1 MOL    -0.6136 ****
 23 N3     11.293906   -1.956778   -4.553651 N     1 MOL    -0.5650 ****
 24 C18    11.015915   -1.077396   -5.670616 CT    1 MOL    -0.3231 ****
 25 N       3.997412    1.070275   -0.425452 N     1 MOL    -0.7191 ****
 26 C19     3.587019    2.267163   -0.934086 C     1 MOL     0.8539 ****
 27 C20     4.328148    2.727659   -2.172145 CT    1 MOL    -0.3903 ****
 28 O4      2.697134    2.905425   -0.447397 O     1 MOL    -0.6290 ****
 29 H1     -0.403259    1.006147    0.000000 H1    1 MOL     0.1459 ****
 30 H2     -0.364960   -0.516002    0.875939 H1    1 MOL     0.1459 ****
 31 H3     -0.345658   -0.522086   -0.883346 H1    1 MOL     0.1459 ****
 32 H4      1.904244    0.070913   -0.879357 H     1 MOL     0.3572 ****
 33 HB1     3.932135    1.221760    2.980082 HC    1 MOL     0.0997 ****
 34 HB2     5.280920    1.595925    1.907500 HC    1 MOL     0.0997 ****
 35 HB3     3.792711    2.540594    1.848395 HC    1 MOL     0.0997 ****
 36 HB4     3.663102   -1.387109    1.682445 HC    1 MOL     0.0347 ****
 37 HB5     5.257164   -0.707639    1.540312 HC    1 MOL     0.0347 ****
 38 HC1     4.571315   -2.675545    0.053282 HC    1 MOL     0.0243 ****
 39 HC2     3.620536   -1.567478   -0.884385 HC    1 MOL     0.0243 ****
 40 HD1     5.667018   -0.339766   -1.545751 HC    1 MOL     0.0171 ****
 41 HD2     5.723238   -2.018054   -1.964009 HC    1 MOL     0.0171 ****
 42 HE      7.330757   -0.596005    0.206139 HA    1 MOL     0.1313 ****
 43 HF      8.787221   -2.389343    0.205291 HA    1 MOL     0.1359 ****
 44 HG1     6.698132   -3.947248   -1.397791 HC    1 MOL     0.0092 ****
 45 HG2     7.997571   -4.603234   -0.450233 HC    1 MOL     0.0092 ****
 46 HH1     8.350092   -4.844667   -2.878708 HC    1 MOL     0.0318 ****
 47 HH2     8.292813   -3.128023   -3.097778 HC    1 MOL     0.0318 ****
 48 HI1    10.358199   -4.494441   -1.319403 HC    1 MOL     0.0435 ****
 49 HI2    10.310783   -2.805272   -1.740679 HC    1 MOL     0.0435 ****
 50 HK1    12.713463   -4.594608   -1.995275 HC    1 MOL     0.1066 ****
 51 HK2    12.599226   -2.873869   -2.281850 HC    1 MOL     0.1066 ****
 52 HK3    13.239949   -3.944116   -3.534780 HC    1 MOL     0.1066 ****
 53 HK     10.036258   -5.861274   -3.525353 H     1 MOL     0.3529 ****
 54 H26    11.786502   -7.732567   -5.930795 HC    1 MOL     0.1047 ****
 55 H27    10.163611   -7.052947   -5.951599 HC    1 MOL     0.1047 ****
 56 H28    10.725099   -7.919855   -4.525628 HC    1 MOL     0.1047 ****
 57 H29    12.151760   -1.822806   -4.072561 H     1 MOL     0.3615 ****
 58 H30    11.496858   -0.125272   -5.488753 H1    1 MOL     0.1469 ****
 59 H31     9.950385   -0.923121   -5.757061 H1    1 MOL     0.1469 ****
 60 H32    11.379947   -1.488139   -6.606845 H1    1 MOL     0.1469 ****
 61 H       4.828120    0.684785   -0.816437 H     1 MOL     0.3570 ****
 62 H34     3.710173    3.434604   -2.706288 HC    1 MOL     0.1060 ****
 63 H35     4.588171    1.902533   -2.825678 HC    1 MOL     0.1060 ****
 64 H36     5.244771    3.226201   -1.873716 HC    1 MOL     0.1060 ****
@<TRIPOS>BOND
    1     1     2 1
    2     1    29 1
    3     1    30 1
    4     1    31 1
    5     2     3 1
    6     2    32 1
    7     3     4 1
    8     3     5 1
    9     5     6 1
   10     5     7 1
   11     5    25 1
   12     6    33 1
   13     6    34 1
   14     6    35 1
   15     7     8 1
   16     7    36 1
   17     7    37 1
   18     8     9 1
   19     8    38 1
   20     8    39 1
   21     9    10 1
   22     9    40 1
   23     9    41 1
   24    10    11 1
   25    10    42 1
   26    11    12 1
   27    11    43 1
   28    12    13 1
   29    12    44 1
   30    12    45 1
   31    13    14 1
   32    13    46 1
   33    13    47 1
   34    14    15 1
   35    14    48 1
   36    14    49 1
   37    15    16 1
   38    15    17 1
   39    15    21 1
   40    16    50 1
   41    16    51 1
   42    16    52 1
   43    17    18 1
   44    17    53 1
   45    18    19 1
   46    18    20 1
   47    19    54 1
   48    19    55 1
   49    19    56 1
   50    21    22 1
   51    21    23 1
   52    23    24 1
   53    23    57 1
   54    24    58 1
   55    24    59 1
   56    24    60 1
   57    25    26 1
   58    25    61 1
   59    26    27 1
   60    26    28 1
   61    27    62 1
   62    27    63 1
   63    27    64 1
@<TRIPOS>SUBSTRUCTURE
      1  MOL              1 ****               0 ****  **** 
