@<TRIPOS>MOLECULE
MOL
   64    63     1     0     1 
SMALL
USER_CHARGES
@<TRIPOS>ATOM
  1 C1      0.000000    0.000000    0.000000 CT    1 MOL    -0.3208 ****
  2 N1      1.448187    0.000000    0.000000 N     1 MOL    -0.5622 ****
  3 C       2.123200    0.475920    1.072365 C     1 MOL     0.8053 ****
  4 O       1.590179    0.696732    2.124447 O     1 MOL    -0.6151 ****
  5 CA      3.650505    0.594143    0.921539 CX    1 MOL     0.0839 ****
  6 C1B     4.198902    1.549248    1.986845 CU    1 MOL    -0.3230 ****
  7 C2B     4.307751   -0.809116    1.023981 CU    1 MOL    -0.0657 ****
  8 CC      3.935454   -1.723917    2.204730 CU    1 MOL    -0.0109 ****
  9 CD      2.640639   -2.552316    2.087053 CU    1 MOL     0.0816 ****
 10 CE      2.594894   -3.452643    0.874784 CM    1 MOL    -0.2354 ****
 11 CF      2.869960   -4.745741    0.820071 CM    1 MOL    -0.2653 ****
 12 CY      3.299112   -5.642023    1.956847 CU    1 MOL     0.1214 ****
 13 CH      2.180545   -6.543226    2.510204 CU    1 MOL    -0.0354 ****
 14 CI      1.620924   -7.507742    1.455952 CU    1 MOL    -0.0984 ****
 15 CJ      0.615004   -8.592017    1.921912 CU    1 MOL     0.1300 ****
 16 C1K     0.166291   -9.375207    0.677436 CU    1 MOL    -0.3561 ****
 17 N2K     1.296497   -9.492294    2.842021 N     1 MOL    -0.7186 ****
 18 C15     0.619305  -10.460949    3.524792 C     1 MOL     0.8537 ****
 19 C16     1.363586  -11.050683    4.700830 CT    1 MOL    -0.3868 ****
 20 O2     -0.483310  -10.822416    3.220290 O     1 MOL    -0.6323 ****
 21 C3K    -0.535934   -7.899061    2.686032 C     1 MOL     0.7903 ****
 22 OF     -0.412424   -7.625400    3.849554 O     1 MOL    -0.6136 ****
 23 N3     -1.622198   -7.529796    1.973534 N     1 MOL    -0.5650 ****
 24 C18    -2.757675   -6.922091    2.636549 CT    1 MOL    -0.3231 ****
 25 N       3.997412    1.070275   -0.425452 N     1 MOL    -0.7191 ****
 26 C19     3.587019    2.267163   -0.934086 C     1 MOL     0.8539 ****
 27 C20     4.328148    2.727659   -2.172145 CT    1 MOL    -0.3903 ****
 28 O4      2.697134    2.905425   -0.447397 O     1 MOL    -0.6290 ****
 29 H1     -0.403259    1.006147    0.000000 H1    1 MOL     0.1459 ****
 30 H2     -0.364960   -0.516002    0.875939 H1    1 MOL     0.1459 ****
 31 H3     -0.345658   -0.522086   -0.883346 H1    1 MOL     0.1459 ****
 32 H4      1.904244    0.070913   -0.879357 H     1 MOL     0.3572 ****
 33 HB1     3.932135    1.221760    2.980082 HC    1 MOL     0.0997 ****
 34 HB2     5.280920    1.595925    1.907500 HC    1 MOL     0.0997 ****
 35 HB3     3.792711    2.540594    1.848395 HC    1 MOL     0.0997 ****
 36 HB4     5.378447   -0.627281    1.085365 HC    1 MOL     0.0347 ****
 37 HB5     4.141919   -1.335902    0.089489 HC    1 MOL     0.0347 ****
 38 HC1     4.758992   -2.421853    2.324266 HC    1 MOL     0.0243 ****
 39 HC2     3.894299   -1.146731    3.122628 HC    1 MOL     0.0243 ****
 40 HD1     1.780089   -1.896096    2.073182 HC    1 MOL     0.0171 ****
 41 HD2     2.553598   -3.140689    2.993737 HC    1 MOL     0.0171 ****
 42 HE      2.298028   -2.971376   -0.043022 HA    1 MOL     0.1313 ****
 43 HF      2.777692   -5.229228   -0.139871 HA    1 MOL     0.1359 ****
 44 HG1     3.693154   -5.050132    2.774076 HC    1 MOL     0.0092 ****
 45 HG2     4.121119   -6.268278    1.612313 HC    1 MOL     0.0092 ****
 46 HH1     2.585134   -7.089526    3.357694 HC    1 MOL     0.0318 ****
 47 HH2     1.386216   -5.924534    2.906553 HC    1 MOL     0.0318 ****
 48 HI1     2.442963   -8.034158    0.975668 HC    1 MOL     0.0435 ****
 49 HI2     1.129582   -6.928541    0.682998 HC    1 MOL     0.0435 ****
 50 HK1     1.021295   -9.905202    0.274130 HC    1 MOL     0.1066 ****
 51 HK2    -0.197139   -8.707816   -0.097088 HC    1 MOL     0.1066 ****
 52 HK3    -0.597335  -10.100146    0.916345 HC    1 MOL     0.1066 ****
 53 HK      2.062885   -9.094909    3.335424 H     1 MOL     0.3529 ****
 54 H26     0.944547  -12.017354    4.935383 HC    1 MOL     0.1047 ****
 55 H27     1.231065  -10.396499    5.557339 HC    1 MOL     0.1047 ****
 56 H28     2.425873  -11.147733    4.504593 HC    1 MOL     0.1047 ****
 57 H29    -1.789631   -7.974771    1.102171 H     1 MOL     0.3615 ****
 58 H30    -3.462052   -6.593370    1.883743 H1    1 MOL     0.1469 ****
 59 H31    -2.430627   -6.067381    3.210253 H1    1 MOL     0.1469 ****
 60 H32    -3.251339   -7.617185    3.308035 H1    1 MOL     0.1469 ****
 61 H       4.828120    0.684785   -0.816437 H     1 MOL     0.3570 ****
 62 H34     3.710173    3.434604   -2.706288 HC    1 MOL     0.1060 ****
 63 H35     4.588171    1.902533   -2.825678 HC    1 MOL     0.1060 ****
 64 H36     5.244771    3.226201   -1.873716 HC    1 MOL     0.1060 ****
@<TRIPOS>BOND
    1     1     2 1
    2     1    29 1
    3     1    30 1
    4     1    31 1
    5     2     3 1
    6     2    32 1
    7     3     4 1
    8     3     5 1
    9     5     6 1
   10     5     7 1
   11     5    25 1
   12     6    33 1
   13     6    34 1
   14     6    35 1
   15     7     8 1
   16     7    36 1
   17     7    37 1
   18     8     9 1
   19     8    38 1
   20     8    39 1
   21     9    10 1
   22     9    40 1
   23     9    41 1
   24    10    11 1
   25    10    42 1
   26    11    12 1
   27    11    43 1
   28    12    13 1
   29    12    44 1
   30    12    45 1
   31    13    14 1
   32    13    46 1
   33    13    47 1
   34    14    15 1
   35    14    48 1
   36    14    49 1
   37    15    16 1
   38    15    17 1
   39    15    21 1
   40    16    50 1
   41    16    51 1
   42    16    52 1
   43    17    18 1
   44    17    53 1
   45    18    19 1
   46    18    20 1
   47    19    54 1
   48    19    55 1
   49    19    56 1
   50    21    22 1
   51    21    23 1
   52    23    24 1
   53    23    57 1
   54    24    58 1
   55    24    59 1
   56    24    60 1
   57    25    26 1
   58    25    61 1
   59    26    27 1
   60    26    28 1
   61    27    62 1
   62    27    63 1
   63    27    64 1
@<TRIPOS>SUBSTRUCTURE
      1  MOL              1 ****               0 ****  **** 
