@<TRIPOS>MOLECULE
MOL
   64    63     1     0     1 
SMALL
USER_CHARGES
@<TRIPOS>ATOM
  1 C1      0.000000    0.000000    0.000000 CT    1 MOL    -0.3208 ****
  2 N1      1.448187    0.000000    0.000000 N     1 MOL    -0.5622 ****
  3 C       2.123200    0.475920    1.072365 C     1 MOL     0.8053 ****
  4 O       1.590179    0.696732    2.124447 O     1 MOL    -0.6151 ****
  5 CA      3.650505    0.594143    0.921539 CX    1 MOL     0.0839 ****
  6 C1B     4.198902    1.549248    1.986845 CU    1 MOL    -0.3230 ****
  7 C2B     4.307751   -0.809116    1.023981 CU    1 MOL    -0.0657 ****
  8 CC      3.410270   -2.039870    1.246255 CU    1 MOL    -0.0109 ****
  9 CD      2.730445   -2.661864    0.010294 CU    1 MOL     0.0816 ****
 10 CE      3.693663   -3.080401   -1.075669 CM    1 MOL    -0.2354 ****
 11 CF      4.167396   -4.293524   -1.309479 CM    1 MOL    -0.2653 ****
 12 CY      3.862890   -5.560767   -0.547163 CU    1 MOL     0.1214 ****
 13 CH      2.863452   -6.497810   -1.249044 CU    1 MOL    -0.0354 ****
 14 CI      3.367683   -6.986692   -2.613471 CU    1 MOL    -0.0984 ****
 15 CJ      2.541748   -8.074309   -3.348022 CU    1 MOL     0.1300 ****
 16 C1K     3.220211   -8.337573   -4.702212 CU    1 MOL    -0.3561 ****
 17 N2K     2.564156   -9.292146   -2.549333 N     1 MOL    -0.7186 ****
 18 C15     1.801002  -10.374925   -2.878333 C     1 MOL     0.8537 ****
 19 C16     1.635066  -11.396402   -1.776582 CT    1 MOL    -0.3868 ****
 20 O2      1.297095  -10.512585   -3.958273 O     1 MOL    -0.6323 ****
 21 C3K     1.077302   -7.591706   -3.453930 C     1 MOL     0.7903 ****
 22 OF      0.319580   -7.748614   -2.534600 O     1 MOL    -0.6136 ****
 23 N3      0.726549   -6.906967   -4.563923 N     1 MOL    -0.5650 ****
 24 C18    -0.642038   -6.470426   -4.749945 CT    1 MOL    -0.3231 ****
 25 N       3.997412    1.070275   -0.425452 N     1 MOL    -0.7191 ****
 26 C19     3.587019    2.267163   -0.934086 C     1 MOL     0.8539 ****
 27 C20     4.328148    2.727659   -2.172145 CT    1 MOL    -0.3903 ****
 28 O4      2.697134    2.905425   -0.447397 O     1 MOL    -0.6290 ****
 29 H1     -0.403259    1.006147    0.000000 H1    1 MOL     0.1459 ****
 30 H2     -0.364960   -0.516002    0.875939 H1    1 MOL     0.1459 ****
 31 H3     -0.345658   -0.522086   -0.883346 H1    1 MOL     0.1459 ****
 32 H4      1.904244    0.070913   -0.879357 H     1 MOL     0.3572 ****
 33 HB1     3.932135    1.221760    2.980082 HC    1 MOL     0.0997 ****
 34 HB2     5.280920    1.595925    1.907500 HC    1 MOL     0.0997 ****
 35 HB3     3.792711    2.540594    1.848395 HC    1 MOL     0.0997 ****
 36 HB4     4.988581   -0.752569    1.870441 HC    1 MOL     0.0347 ****
 37 HB5     4.926678   -0.964231    0.145830 HC    1 MOL     0.0347 ****
 38 HC1     4.041387   -2.804252    1.690136 HC    1 MOL     0.0243 ****
 39 HC2     2.646940   -1.814107    1.983638 HC    1 MOL     0.0243 ****
 40 HD1     2.008888   -1.969785   -0.404128 HC    1 MOL     0.0171 ****
 41 HD2     2.160463   -3.517446    0.355160 HC    1 MOL     0.0171 ****
 42 HE      4.019943   -2.288017   -1.729720 HA    1 MOL     0.1313 ****
 43 HF      4.847575   -4.405717   -2.139256 HA    1 MOL     0.1359 ****
 44 HG1     3.473073   -5.323942    0.435396 HC    1 MOL     0.0092 ****
 45 HG2     4.796116   -6.097696   -0.381664 HC    1 MOL     0.0092 ****
 46 HH1     2.673451   -7.335944   -0.584360 HC    1 MOL     0.0318 ****
 47 HH2     1.915853   -5.988233   -1.364013 HC    1 MOL     0.0318 ****
 48 HI1     4.374862   -7.383426   -2.505175 HC    1 MOL     0.0435 ****
 49 HI2     3.439362   -6.136098   -3.281079 HC    1 MOL     0.0435 ****
 50 HK1     4.198840   -8.767085   -4.522254 HC    1 MOL     0.1066 ****
 51 HK2     3.366860   -7.415037   -5.254301 HC    1 MOL     0.1066 ****
 52 HK3     2.653177   -9.031813   -5.304078 HC    1 MOL     0.1066 ****
 53 HK      2.694831   -9.157247   -1.572892 H     1 MOL     0.3529 ****
 54 H26     1.359787  -12.344687   -2.212515 HC    1 MOL     0.1047 ****
 55 H27     0.834633  -11.069613   -1.119587 HC    1 MOL     0.1047 ****
 56 H28     2.537904  -11.510730   -1.186502 HC    1 MOL     0.1047 ****
 57 H29     1.285964   -7.007307   -5.377739 H     1 MOL     0.3615 ****
 58 H30    -0.687797   -5.842521   -5.630037 H1    1 MOL     0.1469 ****
 59 H31    -0.962247   -5.898102   -3.891728 H1    1 MOL     0.1469 ****
 60 H32    -1.318977   -7.309473   -4.874480 H1    1 MOL     0.1469 ****
 61 H       4.828120    0.684785   -0.816437 H     1 MOL     0.3570 ****
 62 H34     3.710173    3.434604   -2.706288 HC    1 MOL     0.1060 ****
 63 H35     4.588171    1.902533   -2.825678 HC    1 MOL     0.1060 ****
 64 H36     5.244771    3.226201   -1.873716 HC    1 MOL     0.1060 ****
@<TRIPOS>BOND
    1     1     2 1
    2     1    29 1
    3     1    30 1
    4     1    31 1
    5     2     3 1
    6     2    32 1
    7     3     4 1
    8     3     5 1
    9     5     6 1
   10     5     7 1
   11     5    25 1
   12     6    33 1
   13     6    34 1
   14     6    35 1
   15     7     8 1
   16     7    36 1
   17     7    37 1
   18     8     9 1
   19     8    38 1
   20     8    39 1
   21     9    10 1
   22     9    40 1
   23     9    41 1
   24    10    11 1
   25    10    42 1
   26    11    12 1
   27    11    43 1
   28    12    13 1
   29    12    44 1
   30    12    45 1
   31    13    14 1
   32    13    46 1
   33    13    47 1
   34    14    15 1
   35    14    48 1
   36    14    49 1
   37    15    16 1
   38    15    17 1
   39    15    21 1
   40    16    50 1
   41    16    51 1
   42    16    52 1
   43    17    18 1
   44    17    53 1
   45    18    19 1
   46    18    20 1
   47    19    54 1
   48    19    55 1
   49    19    56 1
   50    21    22 1
   51    21    23 1
   52    23    24 1
   53    23    57 1
   54    24    58 1
   55    24    59 1
   56    24    60 1
   57    25    26 1
   58    25    61 1
   59    26    27 1
   60    26    28 1
   61    27    62 1
   62    27    63 1
   63    27    64 1
@<TRIPOS>SUBSTRUCTURE
      1  MOL              1 ****               0 ****  **** 
