@<TRIPOS>MOLECULE
MOL
   64    63     1     0     1 
SMALL
USER_CHARGES
@<TRIPOS>ATOM
  1 C1      0.000000    0.000000    0.000000 CT    1 MOL    -0.3208 ****
  2 N1      1.448187    0.000000    0.000000 N     1 MOL    -0.5622 ****
  3 C       2.123200    0.475920    1.072365 C     1 MOL     0.8053 ****
  4 O       1.590179    0.696732    2.124447 O     1 MOL    -0.6151 ****
  5 CA      3.650505    0.594143    0.921539 CX    1 MOL     0.0839 ****
  6 C1B     4.198902    1.549248    1.986845 CU    1 MOL    -0.3230 ****
  7 C2B     4.307751   -0.809116    1.023981 CU    1 MOL    -0.0657 ****
  8 CC      3.407928   -2.058042    1.012350 CU    1 MOL    -0.0109 ****
  9 CD      2.940733   -2.590186   -0.357025 CU    1 MOL     0.0816 ****
 10 CE      4.069104   -2.921326   -1.305394 CM    1 MOL    -0.2354 ****
 11 CF      4.594463   -4.110998   -1.549189 CM    1 MOL    -0.2653 ****
 12 CY      4.196340   -5.433142   -0.938299 CU    1 MOL     0.1214 ****
 13 CH      3.335380   -6.320997   -1.854829 CU    1 MOL    -0.0354 ****
 14 CI      4.055280   -6.704159   -3.154770 CU    1 MOL    -0.0984 ****
 15 CJ      3.373371   -7.738757   -4.087107 CU    1 MOL     0.1300 ****
 16 C1K     4.259832   -7.896707   -5.333176 CU    1 MOL    -0.3561 ****
 17 N2K     3.291541   -9.012494   -3.385373 N     1 MOL    -0.7186 ****
 18 C15     2.608083  -10.072086   -3.908064 C     1 MOL     0.8537 ****
 19 C16     2.289441  -11.173621   -2.923232 CT    1 MOL    -0.3868 ****
 20 O2      2.281833  -10.131861   -5.060943 O     1 MOL    -0.6323 ****
 21 C3K     1.935429   -7.257886   -4.386791 C     1 MOL     0.7903 ****
 22 OF      1.046002   -7.487031   -3.611974 O     1 MOL    -0.6136 ****
 23 N3      1.750928   -6.494454   -5.485478 N     1 MOL    -0.5650 ****
 24 C18     0.420982   -6.053017   -5.852326 CT    1 MOL    -0.3231 ****
 25 N       3.997412    1.070275   -0.425452 N     1 MOL    -0.7191 ****
 26 C19     3.587019    2.267163   -0.934086 C     1 MOL     0.8539 ****
 27 C20     4.328148    2.727659   -2.172145 CT    1 MOL    -0.3903 ****
 28 O4      2.697134    2.905425   -0.447397 O     1 MOL    -0.6290 ****
 29 H1     -0.403259    1.006147    0.000000 H1    1 MOL     0.1459 ****
 30 H2     -0.364960   -0.516002    0.875939 H1    1 MOL     0.1459 ****
 31 H3     -0.345658   -0.522086   -0.883346 H1    1 MOL     0.1459 ****
 32 H4      1.904244    0.070913   -0.879357 H     1 MOL     0.3572 ****
 33 HB1     3.932135    1.221760    2.980082 HC    1 MOL     0.0997 ****
 34 HB2     5.280920    1.595925    1.907500 HC    1 MOL     0.0997 ****
 35 HB3     3.792711    2.540594    1.848395 HC    1 MOL     0.0997 ****
 36 HB4     4.846654   -0.811859    1.968861 HC    1 MOL     0.0347 ****
 37 HB5     5.059057   -0.894972    0.245234 HC    1 MOL     0.0347 ****
 38 HC1     3.974910   -2.849755    1.493329 HC    1 MOL     0.0243 ****
 39 HC2     2.534828   -1.892078    1.634867 HC    1 MOL     0.0243 ****
 40 HD1     2.281077   -1.873278   -0.828470 HC    1 MOL     0.0171 ****
 41 HD2     2.338664   -3.472259   -0.169159 HC    1 MOL     0.0171 ****
 42 HE      4.479985   -2.080648   -1.840699 HA    1 MOL     0.1313 ****
 43 HF      5.397946   -4.157305   -2.267542 HA    1 MOL     0.1359 ****
 44 HG1     3.653537   -5.272279   -0.014744 HC    1 MOL     0.0092 ****
 45 HG2     5.101300   -5.975620   -0.667448 HC    1 MOL     0.0092 ****
 46 HH1     3.058204   -7.207318   -1.290930 HC    1 MOL     0.0318 ****
 47 HH2     2.408792   -5.809636   -2.080161 HC    1 MOL     0.0318 ****
 48 HI1     5.039801   -7.102158   -2.918445 HC    1 MOL     0.0435 ****
 49 HI2     4.215851   -5.805862   -3.739260 HC    1 MOL     0.0435 ****
 50 HK1     5.205511   -8.332886   -5.033144 HC    1 MOL     0.1066 ****
 51 HK2     4.475119   -6.934840   -5.786877 HC    1 MOL     0.1066 ****
 52 HK3     3.806040   -8.547435   -6.065546 HC    1 MOL     0.1066 ****
 53 HK      3.265456   -8.949879   -2.393349 H     1 MOL     0.3529 ****
 54 H26     2.102186  -12.088384   -3.464715 HC    1 MOL     0.1047 ****
 55 H27     1.390537  -10.901141   -2.378391 HC    1 MOL     0.1047 ****
 56 H28     3.090654  -11.326434   -2.208327 HC    1 MOL     0.1047 ****
 57 H29     2.432452   -6.530810   -6.206251 H     1 MOL     0.3615 ****
 58 H30     0.502676   -5.361642   -6.680727 H1    1 MOL     0.1469 ****
 59 H31    -0.039416   -5.547945   -5.015927 H1    1 MOL     0.1469 ****
 60 H32    -0.213541   -6.884280   -6.142388 H1    1 MOL     0.1469 ****
 61 H       4.828120    0.684785   -0.816437 H     1 MOL     0.3570 ****
 62 H34     3.710173    3.434604   -2.706288 HC    1 MOL     0.1060 ****
 63 H35     4.588171    1.902533   -2.825678 HC    1 MOL     0.1060 ****
 64 H36     5.244771    3.226201   -1.873716 HC    1 MOL     0.1060 ****
@<TRIPOS>BOND
    1     1     2 1
    2     1    29 1
    3     1    30 1
    4     1    31 1
    5     2     3 1
    6     2    32 1
    7     3     4 1
    8     3     5 1
    9     5     6 1
   10     5     7 1
   11     5    25 1
   12     6    33 1
   13     6    34 1
   14     6    35 1
   15     7     8 1
   16     7    36 1
   17     7    37 1
   18     8     9 1
   19     8    38 1
   20     8    39 1
   21     9    10 1
   22     9    40 1
   23     9    41 1
   24    10    11 1
   25    10    42 1
   26    11    12 1
   27    11    43 1
   28    12    13 1
   29    12    44 1
   30    12    45 1
   31    13    14 1
   32    13    46 1
   33    13    47 1
   34    14    15 1
   35    14    48 1
   36    14    49 1
   37    15    16 1
   38    15    17 1
   39    15    21 1
   40    16    50 1
   41    16    51 1
   42    16    52 1
   43    17    18 1
   44    17    53 1
   45    18    19 1
   46    18    20 1
   47    19    54 1
   48    19    55 1
   49    19    56 1
   50    21    22 1
   51    21    23 1
   52    23    24 1
   53    23    57 1
   54    24    58 1
   55    24    59 1
   56    24    60 1
   57    25    26 1
   58    25    61 1
   59    26    27 1
   60    26    28 1
   61    27    62 1
   62    27    63 1
   63    27    64 1
@<TRIPOS>SUBSTRUCTURE
      1  MOL              1 ****               0 ****  **** 
