@<TRIPOS>MOLECULE
MOL
   64    63     1     0     1 
SMALL
USER_CHARGES
@<TRIPOS>ATOM
  1 C1      0.000000    0.000000    0.000000 CT    1 MOL    -0.3208 ****
  2 N1      1.448187    0.000000    0.000000 N     1 MOL    -0.5622 ****
  3 C       2.123200    0.475920    1.072365 C     1 MOL     0.8053 ****
  4 O       1.590179    0.696732    2.124447 O     1 MOL    -0.6151 ****
  5 CA      3.650505    0.594143    0.921539 CX    1 MOL     0.0839 ****
  6 C1B     4.198902    1.549248    1.986845 CU    1 MOL    -0.3230 ****
  7 C2B     4.307751   -0.809116    1.023981 CU    1 MOL    -0.0657 ****
  8 CC      3.752122   -1.958751    0.164186 CU    1 MOL    -0.0109 ****
  9 CD      4.231264   -2.054432   -1.297972 CU    1 MOL     0.0816 ****
 10 CE      5.731253   -2.153244   -1.448129 CM    1 MOL    -0.2354 ****
 11 CF      6.452619   -3.246855   -1.633612 CM    1 MOL    -0.2653 ****
 12 CY      5.954479   -4.668217   -1.740111 CU    1 MOL     0.1214 ****
 13 CH      5.902318   -5.215314   -3.178001 CU    1 MOL    -0.0354 ****
 14 CI      7.281051   -5.244143   -3.851185 CU    1 MOL    -0.0984 ****
 15 CJ      7.401985   -5.935593   -5.233907 CU    1 MOL     0.1300 ****
 16 C1K     8.854654   -5.772123   -5.709809 CU    1 MOL    -0.3561 ****
 17 N2K     7.100838   -7.351493   -5.072449 N     1 MOL    -0.7186 ****
 18 C15     6.988555   -8.183946   -6.148307 C     1 MOL     0.8537 ****
 19 C16     6.310783   -9.504853   -5.864345 CT    1 MOL    -0.3868 ****
 20 O2      7.394947   -7.896084   -7.239693 O     1 MOL    -0.6323 ****
 21 C3K     6.348893   -5.321971   -6.184270 C     1 MOL     0.7903 ****
 22 OF      5.215519   -5.721006   -6.171499 O     1 MOL    -0.6136 ****
 23 N3      6.730126   -4.268409   -6.938359 N     1 MOL    -0.5650 ****
 24 C18     5.808062   -3.678403   -7.886985 CT    1 MOL    -0.3231 ****
 25 N       3.997412    1.070275   -0.425452 N     1 MOL    -0.7191 ****
 26 C19     3.587019    2.267163   -0.934086 C     1 MOL     0.8539 ****
 27 C20     4.328148    2.727659   -2.172145 CT    1 MOL    -0.3903 ****
 28 O4      2.697134    2.905425   -0.447397 O     1 MOL    -0.6290 ****
 29 H1     -0.403259    1.006147    0.000000 H1    1 MOL     0.1459 ****
 30 H2     -0.364960   -0.516002    0.875939 H1    1 MOL     0.1459 ****
 31 H3     -0.345658   -0.522086   -0.883346 H1    1 MOL     0.1459 ****
 32 H4      1.904244    0.070913   -0.879357 H     1 MOL     0.3572 ****
 33 HB1     3.932135    1.221760    2.980082 HC    1 MOL     0.0997 ****
 34 HB2     5.280920    1.595925    1.907500 HC    1 MOL     0.0997 ****
 35 HB3     3.792711    2.540594    1.848395 HC    1 MOL     0.0997 ****
 36 HB4     4.200872   -1.107336    2.064589 HC    1 MOL     0.0347 ****
 37 HB5     5.373329   -0.703935    0.845766 HC    1 MOL     0.0347 ****
 38 HC1     4.038395   -2.880724    0.661812 HC    1 MOL     0.0243 ****
 39 HC2     2.667300   -1.936848    0.171700 HC    1 MOL     0.0243 ****
 40 HD1     3.874504   -1.202416   -1.862025 HC    1 MOL     0.0171 ****
 41 HD2     3.753254   -2.924030   -1.735165 HC    1 MOL     0.0171 ****
 42 HE      6.259787   -1.214900   -1.400425 HA    1 MOL     0.1313 ****
 43 HF      7.520453   -3.123552   -1.724646 HA    1 MOL     0.1359 ****
 44 HG1     4.964306   -4.752838   -1.308992 HC    1 MOL     0.0092 ****
 45 HG2     6.601631   -5.307467   -1.140821 HC    1 MOL     0.0092 ****
 46 HH1     5.471409   -6.211814   -3.137019 HC    1 MOL     0.0318 ****
 47 HH2     5.215653   -4.617845   -3.763110 HC    1 MOL     0.0318 ****
 48 HI1     7.993260   -5.738987   -3.194358 HC    1 MOL     0.0435 ****
 49 HI2     7.627996   -4.224804   -3.973361 HC    1 MOL     0.0435 ****
 50 HK1     9.503928   -6.319900   -5.036783 HC    1 MOL     0.1066 ****
 51 HK2     9.162309   -4.731923   -5.683115 HC    1 MOL     0.1066 ****
 52 HK3     8.994429   -6.164107   -6.706077 HC    1 MOL     0.1066 ****
 53 HK      6.501783   -7.574048   -4.310665 H     1 MOL     0.3529 ****
 54 H26     6.591101  -10.216676   -6.625785 HC    1 MOL     0.1047 ****
 55 H27     5.235675   -9.357578   -5.904078 HC    1 MOL     0.1047 ****
 56 H28     6.567704   -9.893278   -4.884804 HC    1 MOL     0.1047 ****
 57 H29     7.699500   -4.129149   -7.100316 H     1 MOL     0.3615 ****
 58 H30     6.258644   -2.783635   -8.295993 H1    1 MOL     0.1469 ****
 59 H31     4.889130   -3.412544   -7.385479 H1    1 MOL     0.1469 ****
 60 H32     5.571606   -4.361163   -8.696727 H1    1 MOL     0.1469 ****
 61 H       4.828120    0.684785   -0.816437 H     1 MOL     0.3570 ****
 62 H34     3.710173    3.434604   -2.706288 HC    1 MOL     0.1060 ****
 63 H35     4.588171    1.902533   -2.825678 HC    1 MOL     0.1060 ****
 64 H36     5.244771    3.226201   -1.873716 HC    1 MOL     0.1060 ****
@<TRIPOS>BOND
    1     1     2 1
    2     1    29 1
    3     1    30 1
    4     1    31 1
    5     2     3 1
    6     2    32 1
    7     3     4 1
    8     3     5 1
    9     5     6 1
   10     5     7 1
   11     5    25 1
   12     6    33 1
   13     6    34 1
   14     6    35 1
   15     7     8 1
   16     7    36 1
   17     7    37 1
   18     8     9 1
   19     8    38 1
   20     8    39 1
   21     9    10 1
   22     9    40 1
   23     9    41 1
   24    10    11 1
   25    10    42 1
   26    11    12 1
   27    11    43 1
   28    12    13 1
   29    12    44 1
   30    12    45 1
   31    13    14 1
   32    13    46 1
   33    13    47 1
   34    14    15 1
   35    14    48 1
   36    14    49 1
   37    15    16 1
   38    15    17 1
   39    15    21 1
   40    16    50 1
   41    16    51 1
   42    16    52 1
   43    17    18 1
   44    17    53 1
   45    18    19 1
   46    18    20 1
   47    19    54 1
   48    19    55 1
   49    19    56 1
   50    21    22 1
   51    21    23 1
   52    23    24 1
   53    23    57 1
   54    24    58 1
   55    24    59 1
   56    24    60 1
   57    25    26 1
   58    25    61 1
   59    26    27 1
   60    26    28 1
   61    27    62 1
   62    27    63 1
   63    27    64 1
@<TRIPOS>SUBSTRUCTURE
      1  MOL              1 ****               0 ****  **** 
