@<TRIPOS>MOLECULE
MOL
   64    63     1     0     1 
SMALL
USER_CHARGES
@<TRIPOS>ATOM
  1 C1      0.000000    0.000000    0.000000 CT    1 MOL    -0.3208 ****
  2 N1      1.448187    0.000000    0.000000 N     1 MOL    -0.5622 ****
  3 C       2.123200    0.475920    1.072365 C     1 MOL     0.8053 ****
  4 O       1.590179    0.696732    2.124447 O     1 MOL    -0.6151 ****
  5 CA      3.650505    0.594143    0.921539 CX    1 MOL     0.0839 ****
  6 C1B     4.198902    1.549248    1.986845 CU    1 MOL    -0.3230 ****
  7 C2B     4.307751   -0.809116    1.023981 CU    1 MOL    -0.0657 ****
  8 CC      5.839839   -0.910115    1.134160 CU    1 MOL    -0.0109 ****
  9 CD      6.470225   -0.726389    2.528970 CU    1 MOL     0.0816 ****
 10 CE      5.946412   -1.686016    3.571570 CM    1 MOL    -0.2354 ****
 11 CF      6.505596   -2.811909    3.984409 CM    1 MOL    -0.2653 ****
 12 CY      7.806478   -3.417212    3.514227 CU    1 MOL     0.1214 ****
 13 CH      8.986924   -3.211477    4.480553 CU    1 MOL    -0.0354 ****
 14 CI      8.745410   -3.849694    5.855058 CU    1 MOL    -0.0984 ****
 15 CJ      9.922307   -3.871922    6.864545 CU    1 MOL     0.1300 ****
 16 C1K     9.404651   -4.501389    8.168100 CU    1 MOL    -0.3561 ****
 17 N2K    10.988253   -4.699334    6.316201 N     1 MOL    -0.7186 ****
 18 C15    12.208135   -4.785038    6.922501 C     1 MOL     0.8537 ****
 19 C16    13.310150   -5.356057    6.059769 CT    1 MOL    -0.3868 ****
 20 O2     12.398854   -4.435895    8.054255 O     1 MOL    -0.6323 ****
 21 C3K    10.460576   -2.431934    7.024000 C     1 MOL     0.7903 ****
 22 OF     11.249901   -1.989068    6.233579 O     1 MOL    -0.6136 ****
 23 N3      9.933704   -1.676538    8.011807 N     1 MOL    -0.5650 ****
 24 C18    10.429076   -0.336109    8.248572 CT    1 MOL    -0.3231 ****
 25 N       3.997412    1.070275   -0.425452 N     1 MOL    -0.7191 ****
 26 C19     3.587019    2.267163   -0.934086 C     1 MOL     0.8539 ****
 27 C20     4.328148    2.727659   -2.172145 CT    1 MOL    -0.3903 ****
 28 O4      2.697134    2.905425   -0.447397 O     1 MOL    -0.6290 ****
 29 H1     -0.403259    1.006147    0.000000 H1    1 MOL     0.1459 ****
 30 H2     -0.364960   -0.516002    0.875939 H1    1 MOL     0.1459 ****
 31 H3     -0.345658   -0.522086   -0.883346 H1    1 MOL     0.1459 ****
 32 H4      1.904244    0.070913   -0.879357 H     1 MOL     0.3572 ****
 33 HB1     3.932135    1.221760    2.980082 HC    1 MOL     0.0997 ****
 34 HB2     5.280920    1.595925    1.907500 HC    1 MOL     0.0997 ****
 35 HB3     3.792711    2.540594    1.848395 HC    1 MOL     0.0997 ****
 36 HB4     4.016764   -1.335692    0.117744 HC    1 MOL     0.0347 ****
 37 HB5     3.847781   -1.345280    1.848140 HC    1 MOL     0.0347 ****
 38 HC1     6.108392   -1.902321    0.783412 HC    1 MOL     0.0243 ****
 39 HC2     6.307973   -0.211455    0.448522 HC    1 MOL     0.0243 ****
 40 HD1     6.318894    0.288210    2.874009 HC    1 MOL     0.0171 ****
 41 HD2     7.541771   -0.846678    2.414278 HC    1 MOL     0.0171 ****
 42 HE      5.009825   -1.404277    4.024936 HA    1 MOL     0.1313 ****
 43 HF      5.985265   -3.370145    4.746897 HA    1 MOL     0.1359 ****
 44 HG1     8.083353   -3.010306    2.549223 HC    1 MOL     0.0092 ****
 45 HG2     7.655765   -4.485098    3.360938 HC    1 MOL     0.0092 ****
 46 HH1     9.874214   -3.627787    4.011749 HC    1 MOL     0.0318 ****
 47 HH2     9.177859   -2.152172    4.591220 HC    1 MOL     0.0318 ****
 48 HI1     8.431203   -4.882856    5.723213 HC    1 MOL     0.0435 ****
 49 HI2     7.922642   -3.334159    6.336335 HC    1 MOL     0.0435 ****
 50 HK1     9.148131   -5.536608    7.975485 HC    1 MOL     0.1066 ****
 51 HK2     8.505449   -4.003055    8.515202 HC    1 MOL     0.1066 ****
 52 HK3    10.152706   -4.478928    8.946334 HC    1 MOL     0.1066 ****
 53 HK     11.012492   -4.758012    5.323890 H     1 MOL     0.3529 ****
 54 H26    14.099765   -5.727368    6.695140 HC    1 MOL     0.1047 ****
 55 H27    13.709036   -4.560970    5.436992 HC    1 MOL     0.1047 ****
 56 H28    12.952768   -6.150852    5.414044 HC    1 MOL     0.1047 ****
 57 H29     9.483894   -2.134903    8.768697 H     1 MOL     0.3615 ****
 58 H30     9.801579    0.137843    8.991901 H1    1 MOL     0.1469 ****
 59 H31    10.384925    0.236059    7.333531 H1    1 MOL     0.1469 ****
 60 H32    11.455900   -0.342432    8.599779 H1    1 MOL     0.1469 ****
 61 H       4.828120    0.684785   -0.816437 H     1 MOL     0.3570 ****
 62 H34     3.710173    3.434604   -2.706288 HC    1 MOL     0.1060 ****
 63 H35     4.588171    1.902533   -2.825678 HC    1 MOL     0.1060 ****
 64 H36     5.244771    3.226201   -1.873716 HC    1 MOL     0.1060 ****
@<TRIPOS>BOND
    1     1     2 1
    2     1    29 1
    3     1    30 1
    4     1    31 1
    5     2     3 1
    6     2    32 1
    7     3     4 1
    8     3     5 1
    9     5     6 1
   10     5     7 1
   11     5    25 1
   12     6    33 1
   13     6    34 1
   14     6    35 1
   15     7     8 1
   16     7    36 1
   17     7    37 1
   18     8     9 1
   19     8    38 1
   20     8    39 1
   21     9    10 1
   22     9    40 1
   23     9    41 1
   24    10    11 1
   25    10    42 1
   26    11    12 1
   27    11    43 1
   28    12    13 1
   29    12    44 1
   30    12    45 1
   31    13    14 1
   32    13    46 1
   33    13    47 1
   34    14    15 1
   35    14    48 1
   36    14    49 1
   37    15    16 1
   38    15    17 1
   39    15    21 1
   40    16    50 1
   41    16    51 1
   42    16    52 1
   43    17    18 1
   44    17    53 1
   45    18    19 1
   46    18    20 1
   47    19    54 1
   48    19    55 1
   49    19    56 1
   50    21    22 1
   51    21    23 1
   52    23    24 1
   53    23    57 1
   54    24    58 1
   55    24    59 1
   56    24    60 1
   57    25    26 1
   58    25    61 1
   59    26    27 1
   60    26    28 1
   61    27    62 1
   62    27    63 1
   63    27    64 1
@<TRIPOS>SUBSTRUCTURE
      1  MOL              1 ****               0 ****  **** 
