@<TRIPOS>MOLECULE
MOL
   64    63     1     0     1 
SMALL
USER_CHARGES
@<TRIPOS>ATOM
  1 C1      0.000000    0.000000    0.000000 CT    1 MOL    -0.3208 ****
  2 N1      1.448187    0.000000    0.000000 N     1 MOL    -0.5622 ****
  3 C       2.123200    0.475920    1.072365 C     1 MOL     0.8053 ****
  4 O       1.590179    0.696732    2.124447 O     1 MOL    -0.6151 ****
  5 CA      3.650505    0.594143    0.921539 CX    1 MOL     0.0839 ****
  6 C1B     4.198902    1.549248    1.986845 CU    1 MOL    -0.3230 ****
  7 C2B     4.307751   -0.809116    1.023981 CU    1 MOL    -0.0657 ****
  8 CC      5.805234   -0.909381    1.366214 CU    1 MOL    -0.0109 ****
  9 CD      6.206316   -0.826382    2.852445 CU    1 MOL     0.0816 ****
 10 CE      5.542450   -1.863858    3.727203 CM    1 MOL    -0.2354 ****
 11 CF      6.049495   -3.014171    4.140052 CM    1 MOL    -0.2653 ****
 12 CY      7.418182   -3.575462    3.837721 CU    1 MOL     0.1214 ****
 13 CH      8.429137   -3.435530    4.990089 CU    1 MOL    -0.0354 ****
 14 CI      7.986561   -4.175592    6.259478 CU    1 MOL    -0.0984 ****
 15 CJ      8.991192   -4.266220    7.437250 CU    1 MOL     0.1300 ****
 16 C1K     8.286870   -4.993837    8.593950 CU    1 MOL    -0.3561 ****
 17 N2K    10.143939   -5.044512    7.004853 N     1 MOL    -0.7186 ****
 18 C15    11.255209   -5.168199    7.787692 C     1 MOL     0.8537 ****
 19 C16    12.488346   -5.667219    7.069948 CT    1 MOL    -0.3868 ****
 20 O2     11.260416   -4.903153    8.957677 O     1 MOL    -0.6323 ****
 21 C3K     9.472934   -2.839070    7.783507 C     1 MOL     0.7903 ****
 22 OF     10.368460   -2.334177    7.161377 O     1 MOL    -0.6136 ****
 23 N3      8.785011   -2.162245    8.728309 N     1 MOL    -0.5650 ****
 24 C18     9.214012   -0.840371    9.136730 CT    1 MOL    -0.3231 ****
 25 N       3.997412    1.070275   -0.425452 N     1 MOL    -0.7191 ****
 26 C19     3.587019    2.267163   -0.934086 C     1 MOL     0.8539 ****
 27 C20     4.328148    2.727659   -2.172145 CT    1 MOL    -0.3903 ****
 28 O4      2.697134    2.905425   -0.447397 O     1 MOL    -0.6290 ****
 29 H1     -0.403259    1.006147    0.000000 H1    1 MOL     0.1459 ****
 30 H2     -0.364960   -0.516002    0.875939 H1    1 MOL     0.1459 ****
 31 H3     -0.345658   -0.522086   -0.883346 H1    1 MOL     0.1459 ****
 32 H4      1.904244    0.070913   -0.879357 H     1 MOL     0.3572 ****
 33 HB1     3.932135    1.221760    2.980082 HC    1 MOL     0.0997 ****
 34 HB2     5.280920    1.595925    1.907500 HC    1 MOL     0.0997 ****
 35 HB3     3.792711    2.540594    1.848395 HC    1 MOL     0.0997 ****
 36 HB4     4.171299   -1.268445    0.047447 HC    1 MOL     0.0347 ****
 37 HB5     3.733804   -1.407698    1.724385 HC    1 MOL     0.0347 ****
 38 HC1     6.142456   -1.871212    0.991004 HC    1 MOL     0.0243 ****
 39 HC2     6.362762   -0.159017    0.815315 HC    1 MOL     0.0243 ****
 40 HD1     5.985361    0.158865    3.242102 HC    1 MOL     0.0171 ****
 41 HD2     7.284524   -0.931753    2.899349 HC    1 MOL     0.0171 ****
 42 HE      4.541733   -1.621921    4.046803 HA    1 MOL     0.1313 ****
 43 HF      5.425971   -3.630516    4.768618 HA    1 MOL     0.1359 ****
 44 HG1     7.835590   -3.096333    2.960411 HC    1 MOL     0.0092 ****
 45 HG2     7.311773   -4.629819    3.585523 HC    1 MOL     0.0092 ****
 46 HH1     9.385911   -3.810793    4.637761 HC    1 MOL     0.0318 ****
 47 HH2     8.582083   -2.386334    5.206016 HC    1 MOL     0.0318 ****
 48 HI1     7.714742   -5.197840    6.005197 HC    1 MOL     0.0435 ****
 49 HI2     7.089839   -3.701946    6.641446 HC    1 MOL     0.0435 ****
 50 HK1     8.081563   -6.013288    8.288745 HC    1 MOL     0.1066 ****
 51 HK2     7.335960   -4.527791    8.830498 HC    1 MOL     0.1066 ****
 52 HK3     8.903424   -5.025115    9.479739 HC    1 MOL     0.1066 ****
 53 HK     10.324173   -5.029063    6.027106 H     1 MOL     0.3529 ****
 54 H26    13.175098   -6.080309    7.792990 HC    1 MOL     0.1047 ****
 55 H27    12.965988   -4.825763    6.577063 HC    1 MOL     0.1047 ****
 56 H28    12.250192   -6.413776    6.320069 HC    1 MOL     0.1047 ****
 57 H29     8.230280   -2.678183    9.369707 H     1 MOL     0.3615 ****
 58 H30     8.469836   -0.426585    9.804491 H1    1 MOL     0.1469 ****
 59 H31     9.303726   -0.201969    8.270116 H1    1 MOL     0.1469 ****
 60 H32    10.173180   -0.867009    9.643722 H1    1 MOL     0.1469 ****
 61 H       4.828120    0.684785   -0.816437 H     1 MOL     0.3570 ****
 62 H34     3.710173    3.434604   -2.706288 HC    1 MOL     0.1060 ****
 63 H35     4.588171    1.902533   -2.825678 HC    1 MOL     0.1060 ****
 64 H36     5.244771    3.226201   -1.873716 HC    1 MOL     0.1060 ****
@<TRIPOS>BOND
    1     1     2 1
    2     1    29 1
    3     1    30 1
    4     1    31 1
    5     2     3 1
    6     2    32 1
    7     3     4 1
    8     3     5 1
    9     5     6 1
   10     5     7 1
   11     5    25 1
   12     6    33 1
   13     6    34 1
   14     6    35 1
   15     7     8 1
   16     7    36 1
   17     7    37 1
   18     8     9 1
   19     8    38 1
   20     8    39 1
   21     9    10 1
   22     9    40 1
   23     9    41 1
   24    10    11 1
   25    10    42 1
   26    11    12 1
   27    11    43 1
   28    12    13 1
   29    12    44 1
   30    12    45 1
   31    13    14 1
   32    13    46 1
   33    13    47 1
   34    14    15 1
   35    14    48 1
   36    14    49 1
   37    15    16 1
   38    15    17 1
   39    15    21 1
   40    16    50 1
   41    16    51 1
   42    16    52 1
   43    17    18 1
   44    17    53 1
   45    18    19 1
   46    18    20 1
   47    19    54 1
   48    19    55 1
   49    19    56 1
   50    21    22 1
   51    21    23 1
   52    23    24 1
   53    23    57 1
   54    24    58 1
   55    24    59 1
   56    24    60 1
   57    25    26 1
   58    25    61 1
   59    26    27 1
   60    26    28 1
   61    27    62 1
   62    27    63 1
   63    27    64 1
@<TRIPOS>SUBSTRUCTURE
      1  MOL              1 ****               0 ****  **** 
