@<TRIPOS>MOLECULE
MOL
   64    63     1     0     1 
SMALL
USER_CHARGES
@<TRIPOS>ATOM
  1 C1      0.000000    0.000000    0.000000 CT    1 MOL    -0.3208 ****
  2 N1      1.448187    0.000000    0.000000 N     1 MOL    -0.5622 ****
  3 C       2.123200    0.475920    1.072365 C     1 MOL     0.8053 ****
  4 O       1.590179    0.696732    2.124447 O     1 MOL    -0.6151 ****
  5 CA      3.650505    0.594143    0.921539 CX    1 MOL     0.0839 ****
  6 C1B     4.198902    1.549248    1.986845 CU    1 MOL    -0.3230 ****
  7 C2B     4.307751   -0.809116    1.023981 CU    1 MOL    -0.0657 ****
  8 CC      5.476649   -1.156841    0.084622 CU    1 MOL    -0.0109 ****
  9 CD      6.885788   -0.680617    0.489808 CU    1 MOL     0.0816 ****
 10 CE      7.330269   -1.163501    1.850520 CM    1 MOL    -0.2354 ****
 11 CF      8.112288   -2.195195    2.124035 CM    1 MOL    -0.2653 ****
 12 CY      8.753666   -3.146706    1.142701 CU    1 MOL     0.1214 ****
 13 CH     10.248803   -2.882651    0.888920 CU    1 MOL    -0.0354 ****
 14 CI     11.098197   -3.017479    2.159850 CU    1 MOL    -0.0984 ****
 15 CJ     12.640756   -2.952708    2.015063 CU    1 MOL     0.1300 ****
 16 C1K    13.244408   -3.049174    3.425648 CU    1 MOL    -0.3561 ****
 17 N2K    13.080321   -4.091482    1.220388 N     1 MOL    -0.7186 ****
 18 C15    14.375613   -4.216203    0.808415 C     1 MOL     0.8537 ****
 19 C16    14.597844   -5.217370   -0.302027 CT    1 MOL    -0.3868 ****
 20 O2     15.275054   -3.582805    1.286907 O     1 MOL    -0.6323 ****
 21 C3K    13.009207   -1.659527    1.253058 C     1 MOL     0.7903 ****
 22 OF     12.973940   -1.632837    0.052236 O     1 MOL    -0.6136 ****
 23 N3     13.265427   -0.555813    1.988006 N     1 MOL    -0.5650 ****
 24 C18    13.666416    0.675780    1.339478 CT    1 MOL    -0.3231 ****
 25 N       3.997412    1.070275   -0.425452 N     1 MOL    -0.7191 ****
 26 C19     3.587019    2.267163   -0.934086 C     1 MOL     0.8539 ****
 27 C20     4.328148    2.727659   -2.172145 CT    1 MOL    -0.3903 ****
 28 O4      2.697134    2.905425   -0.447397 O     1 MOL    -0.6290 ****
 29 H1     -0.403259    1.006147    0.000000 H1    1 MOL     0.1459 ****
 30 H2     -0.364960   -0.516002    0.875939 H1    1 MOL     0.1459 ****
 31 H3     -0.345658   -0.522086   -0.883346 H1    1 MOL     0.1459 ****
 32 H4      1.904244    0.070913   -0.879357 H     1 MOL     0.3572 ****
 33 HB1     3.932135    1.221760    2.980082 HC    1 MOL     0.0997 ****
 34 HB2     5.280920    1.595925    1.907500 HC    1 MOL     0.0997 ****
 35 HB3     3.792711    2.540594    1.848395 HC    1 MOL     0.0997 ****
 36 HB4     3.511070   -1.521240    0.820509 HC    1 MOL     0.0347 ****
 37 HB5     4.607518   -0.974408    2.054078 HC    1 MOL     0.0347 ****
 38 HC1     5.505573   -2.240526    0.018214 HC    1 MOL     0.0243 ****
 39 HC2     5.265932   -0.799272   -0.917933 HC    1 MOL     0.0243 ****
 40 HD1     6.933778    0.400325    0.464827 HC    1 MOL     0.0171 ****
 41 HD2     7.572947   -1.028298   -0.273582 HC    1 MOL     0.0171 ****
 42 HE      6.962408   -0.587617    2.684277 HA    1 MOL     0.1313 ****
 43 HF      8.327989   -2.388497    3.163202 HA    1 MOL     0.1359 ****
 44 HG1     8.236718   -3.110601    0.191424 HC    1 MOL     0.0092 ****
 45 HG2     8.631429   -4.162833    1.515711 HC    1 MOL     0.0092 ****
 46 HH1    10.582565   -3.579737    0.125344 HC    1 MOL     0.0318 ****
 47 HH2    10.370278   -1.894980    0.463971 HC    1 MOL     0.0318 ****
 48 HI1    10.872477   -3.964066    2.646222 HC    1 MOL     0.0435 ****
 49 HI2    10.810256   -2.235969    2.853162 HC    1 MOL     0.0435 ****
 50 HK1    13.016963   -4.026886    3.834218 HC    1 MOL     0.1066 ****
 51 HK2    12.809709   -2.310077    4.090594 HC    1 MOL     0.1066 ****
 52 HK3    14.317643   -2.932438    3.408987 HC    1 MOL     0.1066 ****
 53 HK     12.405719   -4.451439    0.584734 H     1 MOL     0.3529 ****
 54 H26    15.634031   -5.519653   -0.303046 HC    1 MOL     0.1047 ****
 55 H27    14.374024   -4.737693   -1.250151 HC    1 MOL     0.1047 ****
 56 H28    13.960252   -6.088796   -0.199672 HC    1 MOL     0.1047 ****
 57 H29    13.518444   -0.670683    2.940947 H     1 MOL     0.3615 ****
 58 H30    13.704075    1.461270    2.082788 H1    1 MOL     0.1469 ****
 59 H31    12.943434    0.941529    0.582312 H1    1 MOL     0.1469 ****
 60 H32    14.639304    0.584094    0.867423 H1    1 MOL     0.1469 ****
 61 H       4.828120    0.684785   -0.816437 H     1 MOL     0.3570 ****
 62 H34     3.710173    3.434604   -2.706288 HC    1 MOL     0.1060 ****
 63 H35     4.588171    1.902533   -2.825678 HC    1 MOL     0.1060 ****
 64 H36     5.244771    3.226201   -1.873716 HC    1 MOL     0.1060 ****
@<TRIPOS>BOND
    1     1     2 1
    2     1    29 1
    3     1    30 1
    4     1    31 1
    5     2     3 1
    6     2    32 1
    7     3     4 1
    8     3     5 1
    9     5     6 1
   10     5     7 1
   11     5    25 1
   12     6    33 1
   13     6    34 1
   14     6    35 1
   15     7     8 1
   16     7    36 1
   17     7    37 1
   18     8     9 1
   19     8    38 1
   20     8    39 1
   21     9    10 1
   22     9    40 1
   23     9    41 1
   24    10    11 1
   25    10    42 1
   26    11    12 1
   27    11    43 1
   28    12    13 1
   29    12    44 1
   30    12    45 1
   31    13    14 1
   32    13    46 1
   33    13    47 1
   34    14    15 1
   35    14    48 1
   36    14    49 1
   37    15    16 1
   38    15    17 1
   39    15    21 1
   40    16    50 1
   41    16    51 1
   42    16    52 1
   43    17    18 1
   44    17    53 1
   45    18    19 1
   46    18    20 1
   47    19    54 1
   48    19    55 1
   49    19    56 1
   50    21    22 1
   51    21    23 1
   52    23    24 1
   53    23    57 1
   54    24    58 1
   55    24    59 1
   56    24    60 1
   57    25    26 1
   58    25    61 1
   59    26    27 1
   60    26    28 1
   61    27    62 1
   62    27    63 1
   63    27    64 1
@<TRIPOS>SUBSTRUCTURE
      1  MOL              1 ****               0 ****  **** 
