@<TRIPOS>MOLECULE
MOL
   64    63     1     0     1 
SMALL
USER_CHARGES
@<TRIPOS>ATOM
  1 C1      0.000000    0.000000    0.000000 CT    1 MOL    -0.3208 ****
  2 N1      1.448187    0.000000    0.000000 N     1 MOL    -0.5622 ****
  3 C       2.123200    0.475920    1.072365 C     1 MOL     0.8053 ****
  4 O       1.590179    0.696732    2.124447 O     1 MOL    -0.6151 ****
  5 CA      3.650505    0.594143    0.921539 CX    1 MOL     0.0839 ****
  6 C1B     4.198902    1.549248    1.986845 CU    1 MOL    -0.3230 ****
  7 C2B     4.307751   -0.809116    1.023981 CU    1 MOL    -0.0657 ****
  8 CC      3.913447   -1.894716    0.006322 CU    1 MOL    -0.0109 ****
  9 CD      4.617076   -1.878642   -1.365278 CU    1 MOL     0.0816 ****
 10 CE      6.123562   -1.957541   -1.284334 CM    1 MOL    -0.2354 ****
 11 CF      6.883839   -3.030232   -1.432896 CM    1 MOL    -0.2653 ****
 12 CY      6.433117   -4.442520   -1.719333 CU    1 MOL     0.1214 ****
 13 CH      6.616064   -4.881410   -3.183392 CU    1 MOL    -0.0354 ****
 14 CI      8.083446   -4.852292   -3.631562 CU    1 MOL    -0.0984 ****
 15 CJ      8.431188   -5.438259   -5.024532 CU    1 MOL     0.1300 ****
 16 C1K     9.937391   -5.231639   -5.252813 CU    1 MOL    -0.3561 ****
 17 N2K     8.132976   -6.863925   -5.015674 N     1 MOL    -0.7186 ****
 18 C15     8.204825   -7.614650   -6.153350 C     1 MOL     0.8537 ****
 19 C16     7.513874   -8.956827   -6.076202 CT    1 MOL    -0.3868 ****
 20 O2      8.771966   -7.244099   -7.143392 O     1 MOL    -0.6323 ****
 21 C3K     7.529355   -4.761587   -6.081668 C     1 MOL     0.7903 ****
 22 OF      6.415006   -5.166857   -6.276375 O     1 MOL    -0.6136 ****
 23 N3      8.005649   -3.652707   -6.687893 N     1 MOL    -0.5650 ****
 24 C18     7.233346   -2.998974   -7.724418 CT    1 MOL    -0.3231 ****
 25 N       3.997412    1.070275   -0.425452 N     1 MOL    -0.7191 ****
 26 C19     3.587019    2.267163   -0.934086 C     1 MOL     0.8539 ****
 27 C20     4.328148    2.727659   -2.172145 CT    1 MOL    -0.3903 ****
 28 O4      2.697134    2.905425   -0.447397 O     1 MOL    -0.6290 ****
 29 H1     -0.403259    1.006147    0.000000 H1    1 MOL     0.1459 ****
 30 H2     -0.364960   -0.516002    0.875939 H1    1 MOL     0.1459 ****
 31 H3     -0.345658   -0.522086   -0.883346 H1    1 MOL     0.1459 ****
 32 H4      1.904244    0.070913   -0.879357 H     1 MOL     0.3572 ****
 33 HB1     3.932135    1.221760    2.980082 HC    1 MOL     0.0997 ****
 34 HB2     5.280920    1.595925    1.907500 HC    1 MOL     0.0997 ****
 35 HB3     3.792711    2.540594    1.848395 HC    1 MOL     0.0997 ****
 36 HB4     4.044512   -1.184527    2.010386 HC    1 MOL     0.0347 ****
 37 HB5     5.386113   -0.684954    1.023751 HC    1 MOL     0.0347 ****
 38 HC1     4.134196   -2.849525    0.474538 HC    1 MOL     0.0243 ****
 39 HC2     2.840600   -1.879557   -0.155369 HC    1 MOL     0.0243 ****
 40 HD1     4.338322   -0.989051   -1.915085 HC    1 MOL     0.0171 ****
 41 HD2     4.228456   -2.715989   -1.934188 HC    1 MOL     0.0171 ****
 42 HE      6.621839   -1.022378   -1.086082 HA    1 MOL     0.1313 ****
 43 HF      7.950473   -2.894471   -1.345595 HA    1 MOL     0.1359 ****
 44 HG1     5.389289   -4.564569   -1.456667 HC    1 MOL     0.0092 ****
 45 HG2     6.989453   -5.120921   -1.073689 HC    1 MOL     0.0092 ****
 46 HH1     6.201321   -5.880614   -3.283161 HC    1 MOL     0.0318 ****
 47 HH2     6.019209   -4.245952   -3.824319 HC    1 MOL     0.0318 ****
 48 HI1     8.692531   -5.390603   -2.908534 HC    1 MOL     0.0435 ****
 49 HI2     8.427584   -3.824746   -3.623312 HC    1 MOL     0.0435 ****
 50 HK1    10.482705   -5.824295   -4.527574 HC    1 MOL     0.1066 ****
 51 HK2    10.219074   -4.194588   -5.102612 HC    1 MOL     0.1066 ****
 52 HK3    10.238095   -5.547620   -6.240473 HC    1 MOL     0.1066 ****
 53 HK      7.426025   -7.145917   -4.375821 H     1 MOL     0.3529 ****
 54 H26     7.922141   -9.608434   -6.833689 HC    1 MOL     0.1047 ****
 55 H27     6.455849   -8.813075   -6.273796 HC    1 MOL     0.1047 ****
 56 H28     7.621011   -9.415595   -5.099250 HC    1 MOL     0.1047 ****
 57 H29     8.985875   -3.496313   -6.684775 H     1 MOL     0.3615 ****
 58 H30     7.726865   -2.073727   -7.991397 H1    1 MOL     0.1469 ****
 59 H31     6.242804   -2.776355   -7.355780 H1    1 MOL     0.1469 ****
 60 H32     7.138342   -3.620922   -8.608674 H1    1 MOL     0.1469 ****
 61 H       4.828120    0.684785   -0.816437 H     1 MOL     0.3570 ****
 62 H34     3.710173    3.434604   -2.706288 HC    1 MOL     0.1060 ****
 63 H35     4.588171    1.902533   -2.825678 HC    1 MOL     0.1060 ****
 64 H36     5.244771    3.226201   -1.873716 HC    1 MOL     0.1060 ****
@<TRIPOS>BOND
    1     1     2 1
    2     1    29 1
    3     1    30 1
    4     1    31 1
    5     2     3 1
    6     2    32 1
    7     3     4 1
    8     3     5 1
    9     5     6 1
   10     5     7 1
   11     5    25 1
   12     6    33 1
   13     6    34 1
   14     6    35 1
   15     7     8 1
   16     7    36 1
   17     7    37 1
   18     8     9 1
   19     8    38 1
   20     8    39 1
   21     9    10 1
   22     9    40 1
   23     9    41 1
   24    10    11 1
   25    10    42 1
   26    11    12 1
   27    11    43 1
   28    12    13 1
   29    12    44 1
   30    12    45 1
   31    13    14 1
   32    13    46 1
   33    13    47 1
   34    14    15 1
   35    14    48 1
   36    14    49 1
   37    15    16 1
   38    15    17 1
   39    15    21 1
   40    16    50 1
   41    16    51 1
   42    16    52 1
   43    17    18 1
   44    17    53 1
   45    18    19 1
   46    18    20 1
   47    19    54 1
   48    19    55 1
   49    19    56 1
   50    21    22 1
   51    21    23 1
   52    23    24 1
   53    23    57 1
   54    24    58 1
   55    24    59 1
   56    24    60 1
   57    25    26 1
   58    25    61 1
   59    26    27 1
   60    26    28 1
   61    27    62 1
   62    27    63 1
   63    27    64 1
@<TRIPOS>SUBSTRUCTURE
      1  MOL              1 ****               0 ****  **** 
