@<TRIPOS>MOLECULE
MOL
   64    63     1     0     1 
SMALL
USER_CHARGES
@<TRIPOS>ATOM
  1 C1      0.000000    0.000000    0.000000 CT    1 MOL    -0.3208 ****
  2 N1      1.448187    0.000000    0.000000 N     1 MOL    -0.5622 ****
  3 C       2.123200    0.475920    1.072365 C     1 MOL     0.8053 ****
  4 O       1.590179    0.696732    2.124447 O     1 MOL    -0.6151 ****
  5 CA      3.650505    0.594143    0.921539 CX    1 MOL     0.0839 ****
  6 C1B     4.198902    1.549248    1.986845 CU    1 MOL    -0.3230 ****
  7 C2B     4.307751   -0.809116    1.023981 CU    1 MOL    -0.0657 ****
  8 CC      5.734735   -0.926110    1.589368 CU    1 MOL    -0.0109 ****
  9 CD      5.896806   -0.951651    3.122246 CU    1 MOL     0.0816 ****
 10 CE      5.122242   -2.055064    3.804015 CM    1 MOL    -0.2354 ****
 11 CF      5.578218   -3.230023    4.206897 CM    1 MOL    -0.2653 ****
 12 CY      6.986838   -3.759531    4.083740 CU    1 MOL     0.1214 ****
 13 CH      7.802438   -3.700016    5.387895 CU    1 MOL    -0.0354 ****
 14 CI      7.179515   -4.534955    6.514731 CU    1 MOL    -0.0984 ****
 15 CJ      7.988876   -4.707283    7.826174 CU    1 MOL     0.1300 ****
 16 C1K     7.124890   -5.522904    8.801747 CU    1 MOL    -0.3561 ****
 17 N2K     9.208348   -5.444729    7.525191 N     1 MOL    -0.7186 ****
 18 C15    10.185391   -5.620040    8.462054 C     1 MOL     0.8537 ****
 19 C16    11.524083   -6.057309    7.912961 CT    1 MOL    -0.3868 ****
 20 O2     10.002869   -5.442748    9.634400 O     1 MOL    -0.6323 ****
 21 C3K     8.385784   -3.307153    8.346581 C     1 MOL     0.7903 ****
 22 OF      9.358781   -2.752326    7.911410 O     1 MOL    -0.6136 ****
 23 N3      7.546905   -2.706389    9.217986 N     1 MOL    -0.5650 ****
 24 C18     7.883821   -1.416164    9.783678 CT    1 MOL    -0.3231 ****
 25 N       3.997412    1.070275   -0.425452 N     1 MOL    -0.7191 ****
 26 C19     3.587019    2.267163   -0.934086 C     1 MOL     0.8539 ****
 27 C20     4.328148    2.727659   -2.172145 CT    1 MOL    -0.3903 ****
 28 O4      2.697134    2.905425   -0.447397 O     1 MOL    -0.6290 ****
 29 H1     -0.403259    1.006147    0.000000 H1    1 MOL     0.1459 ****
 30 H2     -0.364960   -0.516002    0.875939 H1    1 MOL     0.1459 ****
 31 H3     -0.345658   -0.522086   -0.883346 H1    1 MOL     0.1459 ****
 32 H4      1.904244    0.070913   -0.879357 H     1 MOL     0.3572 ****
 33 HB1     3.932135    1.221760    2.980082 HC    1 MOL     0.0997 ****
 34 HB2     5.280920    1.595925    1.907500 HC    1 MOL     0.0997 ****
 35 HB3     3.792711    2.540594    1.848395 HC    1 MOL     0.0997 ****
 36 HB4     4.333747   -1.195282    0.007408 HC    1 MOL     0.0347 ****
 37 HB5     3.641692   -1.461379    1.580039 HC    1 MOL     0.0347 ****
 38 HC1     6.143074   -1.855441    1.203073 HC    1 MOL     0.0243 ****
 39 HC2     6.358564   -0.133704    1.188988 HC    1 MOL     0.0243 ****
 40 HD1     5.600619    0.000612    3.542761 HC    1 MOL     0.0171 ****
 41 HD2     6.956046   -1.054132    3.330433 HC    1 MOL     0.0171 ****
 42 HE      4.079814   -1.843228    3.978894 HA    1 MOL     0.1313 ****
 43 HF      4.874748   -3.894935    4.683115 HA    1 MOL     0.1359 ****
 44 HG1     7.528056   -3.214110    3.320154 HC    1 MOL     0.0092 ****
 45 HG2     6.939426   -4.792786    3.742083 HC    1 MOL     0.0092 ****
 46 HH1     8.808894   -4.042620    5.164192 HC    1 MOL     0.0318 ****
 47 HH2     7.901572   -2.668946    5.700778 HC    1 MOL     0.0318 ****
 48 HI1     6.968527   -5.536969    6.147327 HC    1 MOL     0.0435 ****
 49 HI2     6.226025   -4.096108    6.784215 HC    1 MOL     0.0435 ****
 50 HK1     6.987505   -6.517966    8.394857 HC    1 MOL     0.1066 ****
 51 HK2     6.140776   -5.081125    8.918933 HC    1 MOL     0.1066 ****
 52 HK3     7.595680   -5.616516    9.768872 HC    1 MOL     0.1066 ****
 53 HK      9.539073   -5.355563    6.591713 H     1 MOL     0.3529 ****
 54 H26    12.096255   -6.519164    8.703132 HC    1 MOL     0.1047 ****
 55 H27    12.058371   -5.178833    7.563761 HC    1 MOL     0.1047 ****
 56 H28    11.419135   -6.747339    7.082764 HC    1 MOL     0.1047 ****
 57 H29     6.907629   -3.271740    9.724953 H     1 MOL     0.3615 ****
 58 H30     7.037285   -1.057413   10.354288 H1    1 MOL     0.1469 ****
 59 H31     8.097008   -0.714560    8.990627 H1    1 MOL     0.1469 ****
 60 H32     8.752149   -1.475033   10.431979 H1    1 MOL     0.1469 ****
 61 H       4.828120    0.684785   -0.816437 H     1 MOL     0.3570 ****
 62 H34     3.710173    3.434604   -2.706288 HC    1 MOL     0.1060 ****
 63 H35     4.588171    1.902533   -2.825678 HC    1 MOL     0.1060 ****
 64 H36     5.244771    3.226201   -1.873716 HC    1 MOL     0.1060 ****
@<TRIPOS>BOND
    1     1     2 1
    2     1    29 1
    3     1    30 1
    4     1    31 1
    5     2     3 1
    6     2    32 1
    7     3     4 1
    8     3     5 1
    9     5     6 1
   10     5     7 1
   11     5    25 1
   12     6    33 1
   13     6    34 1
   14     6    35 1
   15     7     8 1
   16     7    36 1
   17     7    37 1
   18     8     9 1
   19     8    38 1
   20     8    39 1
   21     9    10 1
   22     9    40 1
   23     9    41 1
   24    10    11 1
   25    10    42 1
   26    11    12 1
   27    11    43 1
   28    12    13 1
   29    12    44 1
   30    12    45 1
   31    13    14 1
   32    13    46 1
   33    13    47 1
   34    14    15 1
   35    14    48 1
   36    14    49 1
   37    15    16 1
   38    15    17 1
   39    15    21 1
   40    16    50 1
   41    16    51 1
   42    16    52 1
   43    17    18 1
   44    17    53 1
   45    18    19 1
   46    18    20 1
   47    19    54 1
   48    19    55 1
   49    19    56 1
   50    21    22 1
   51    21    23 1
   52    23    24 1
   53    23    57 1
   54    24    58 1
   55    24    59 1
   56    24    60 1
   57    25    26 1
   58    25    61 1
   59    26    27 1
   60    26    28 1
   61    27    62 1
   62    27    63 1
   63    27    64 1
@<TRIPOS>SUBSTRUCTURE
      1  MOL              1 ****               0 ****  **** 
