@<TRIPOS>MOLECULE
MOL
   64    63     1     0     1 
SMALL
USER_CHARGES
@<TRIPOS>ATOM
  1 C1      0.000000    0.000000    0.000000 CT    1 MOL    -0.3208 ****
  2 N1      1.448187    0.000000    0.000000 N     1 MOL    -0.5622 ****
  3 C       2.123200    0.475920    1.072365 C     1 MOL     0.8053 ****
  4 O       1.590179    0.696732    2.124447 O     1 MOL    -0.6151 ****
  5 CA      3.650505    0.594143    0.921539 CX    1 MOL     0.0839 ****
  6 C1B     4.198902    1.549248    1.986845 CU    1 MOL    -0.3230 ****
  7 C2B     4.307751   -0.809116    1.023981 CU    1 MOL    -0.0657 ****
  8 CC      4.321249   -1.530137    2.383974 CU    1 MOL    -0.0109 ****
  9 CD      3.054383   -2.306903    2.794244 CU    1 MOL     0.0816 ****
 10 CE      2.634654   -3.366302    1.802388 CM    1 MOL    -0.2354 ****
 11 CF      2.879750   -4.665366    1.858240 CM    1 MOL    -0.2653 ****
 12 CY      3.641348   -5.410846    2.927810 CU    1 MOL     0.1214 ****
 13 CH      2.750557   -6.172932    3.925449 CU    1 MOL    -0.0354 ****
 14 CI      1.891526   -7.250058    3.249595 CU    1 MOL    -0.0984 ****
 15 CJ      1.080741   -8.210666    4.157618 CU    1 MOL     0.1300 ****
 16 C1K     0.267927   -9.140385    3.241972 CU    1 MOL    -0.3561 ****
 17 N2K     2.014863   -9.002194    4.946560 N     1 MOL    -0.7186 ****
 18 C15     1.583845   -9.832855    5.940182 C     1 MOL     0.8537 ****
 19 C16     2.657018  -10.284016    6.904319 CT    1 MOL    -0.3868 ****
 20 O2      0.441375  -10.182999    6.046499 O     1 MOL    -0.6323 ****
 21 C3K     0.223875   -7.365003    5.126824 C     1 MOL     0.7903 ****
 22 OF      0.702685   -6.935765    6.141922 O     1 MOL    -0.6136 ****
 23 N3     -1.030200   -7.050837    4.736215 N     1 MOL    -0.5650 ****
 24 C18    -1.903745   -6.304459    5.618281 CT    1 MOL    -0.3231 ****
 25 N       3.997412    1.070275   -0.425452 N     1 MOL    -0.7191 ****
 26 C19     3.587019    2.267163   -0.934086 C     1 MOL     0.8539 ****
 27 C20     4.328148    2.727659   -2.172145 CT    1 MOL    -0.3903 ****
 28 O4      2.697134    2.905425   -0.447397 O     1 MOL    -0.6290 ****
 29 H1     -0.403259    1.006147    0.000000 H1    1 MOL     0.1459 ****
 30 H2     -0.364960   -0.516002    0.875939 H1    1 MOL     0.1459 ****
 31 H3     -0.345658   -0.522086   -0.883346 H1    1 MOL     0.1459 ****
 32 H4      1.904244    0.070913   -0.879357 H     1 MOL     0.3572 ****
 33 HB1     3.932135    1.221760    2.980082 HC    1 MOL     0.0997 ****
 34 HB2     5.280920    1.595925    1.907500 HC    1 MOL     0.0997 ****
 35 HB3     3.792711    2.540594    1.848395 HC    1 MOL     0.0997 ****
 36 HB4     5.344425   -0.669480    0.725602 HC    1 MOL     0.0347 ****
 37 HB5     3.860009   -1.454418    0.274720 HC    1 MOL     0.0347 ****
 38 HC1     5.141513   -2.241052    2.346737 HC    1 MOL     0.0243 ****
 39 HC2     4.567069   -0.827891    3.173782 HC    1 MOL     0.0243 ****
 40 HD1     2.231794   -1.620639    2.948366 HC    1 MOL     0.0171 ****
 41 HD2     3.253688   -2.756809    3.760524 HC    1 MOL     0.0171 ****
 42 HE      2.067044   -3.006372    0.959545 HA    1 MOL     0.1313 ****
 43 HF      2.494000   -5.274797    1.056023 HA    1 MOL     0.1359 ****
 44 HG1     4.269530   -4.728125    3.487045 HC    1 MOL     0.0092 ****
 45 HG2     4.315915   -6.116310    2.444206 HC    1 MOL     0.0092 ****
 46 HH1     3.398740   -6.612017    4.678734 HC    1 MOL     0.0318 ****
 47 HH2     2.118402   -5.468896    4.450371 HC    1 MOL     0.0318 ****
 48 HI1     2.523891   -7.875951    2.623570 HC    1 MOL     0.0435 ****
 49 HI2     1.184031   -6.763956    2.588154 HC    1 MOL     0.0435 ****
 50 HK1     0.955546   -9.760456    2.678701 HC    1 MOL     0.1066 ****
 51 HK2    -0.318522   -8.573127    2.526657 HC    1 MOL     0.1066 ****
 52 HK3    -0.383294   -9.788737    3.808796 HC    1 MOL     0.1066 ****
 53 HK      2.896431   -8.574526    5.115819 H     1 MOL     0.3529 ****
 54 H26     2.332093  -11.187763    7.396992 HC    1 MOL     0.1047 ****
 55 H27     2.796880   -9.510121    7.653085 HC    1 MOL     0.1047 ****
 56 H28     3.605786  -10.456161    6.407744 HC    1 MOL     0.1047 ****
 57 H29    -1.459888   -7.606249    4.034648 H     1 MOL     0.3615 ****
 58 H30    -2.807344   -6.053502    5.078419 H1    1 MOL     0.1469 ****
 59 H31    -1.415044   -5.393146    5.930218 H1    1 MOL     0.1469 ****
 60 H32    -2.163965   -6.874553    6.504302 H1    1 MOL     0.1469 ****
 61 H       4.828120    0.684785   -0.816437 H     1 MOL     0.3570 ****
 62 H34     3.710173    3.434604   -2.706288 HC    1 MOL     0.1060 ****
 63 H35     4.588171    1.902533   -2.825678 HC    1 MOL     0.1060 ****
 64 H36     5.244771    3.226201   -1.873716 HC    1 MOL     0.1060 ****
@<TRIPOS>BOND
    1     1     2 1
    2     1    29 1
    3     1    30 1
    4     1    31 1
    5     2     3 1
    6     2    32 1
    7     3     4 1
    8     3     5 1
    9     5     6 1
   10     5     7 1
   11     5    25 1
   12     6    33 1
   13     6    34 1
   14     6    35 1
   15     7     8 1
   16     7    36 1
   17     7    37 1
   18     8     9 1
   19     8    38 1
   20     8    39 1
   21     9    10 1
   22     9    40 1
   23     9    41 1
   24    10    11 1
   25    10    42 1
   26    11    12 1
   27    11    43 1
   28    12    13 1
   29    12    44 1
   30    12    45 1
   31    13    14 1
   32    13    46 1
   33    13    47 1
   34    14    15 1
   35    14    48 1
   36    14    49 1
   37    15    16 1
   38    15    17 1
   39    15    21 1
   40    16    50 1
   41    16    51 1
   42    16    52 1
   43    17    18 1
   44    17    53 1
   45    18    19 1
   46    18    20 1
   47    19    54 1
   48    19    55 1
   49    19    56 1
   50    21    22 1
   51    21    23 1
   52    23    24 1
   53    23    57 1
   54    24    58 1
   55    24    59 1
   56    24    60 1
   57    25    26 1
   58    25    61 1
   59    26    27 1
   60    26    28 1
   61    27    62 1
   62    27    63 1
   63    27    64 1
@<TRIPOS>SUBSTRUCTURE
      1  MOL              1 ****               0 ****  **** 
