@<TRIPOS>MOLECULE
MOL
   64    63     1     0     1 
SMALL
USER_CHARGES
@<TRIPOS>ATOM
  1 C1      0.000000    0.000000    0.000000 CT    1 MOL    -0.3208 ****
  2 N1      1.448187    0.000000    0.000000 N     1 MOL    -0.5622 ****
  3 C       2.123200    0.475920    1.072365 C     1 MOL     0.8053 ****
  4 O       1.590179    0.696732    2.124447 O     1 MOL    -0.6151 ****
  5 CA      3.650505    0.594143    0.921539 CX    1 MOL     0.0839 ****
  6 C1B     4.198902    1.549248    1.986845 CU    1 MOL    -0.3230 ****
  7 C2B     4.307751   -0.809116    1.023981 CU    1 MOL    -0.0657 ****
  8 CC      5.630483   -0.959793    1.796839 CU    1 MOL    -0.0109 ****
  9 CD      5.551097   -1.098391    3.330177 CU    1 MOL     0.0816 ****
 10 CE      4.698555   -2.253824    3.799673 CM    1 MOL    -0.2354 ****
 11 CF      5.106085   -3.452907    4.182915 CM    1 MOL    -0.2653 ****
 12 CY      6.525552   -3.963825    4.244812 CU    1 MOL     0.1214 ****
 13 CH      7.125869   -3.996899    5.661883 CU    1 MOL    -0.0354 ****
 14 CI      6.348794   -4.916862    6.613060 CU    1 MOL    -0.0984 ****
 15 CJ      6.945812   -5.181710    8.019499 CU    1 MOL     0.1300 ****
 16 C1K     5.954018   -6.072516    8.785175 CU    1 MOL    -0.3561 ****
 17 N2K     8.209909   -5.887824    7.861406 N     1 MOL    -0.7186 ****
 18 C15     9.031186   -6.126832    8.925096 C     1 MOL     0.8537 ****
 19 C16    10.446659   -6.514474    8.563193 CT    1 MOL    -0.3868 ****
 20 O2      8.664421   -6.038285   10.063861 O     1 MOL    -0.6323 ****
 21 C3K     7.232160   -3.821959    8.696114 C     1 MOL     0.7903 ****
 22 OF      8.251542   -3.230811    8.460885 O     1 MOL    -0.6136 ****
 23 N3      6.257006   -3.292437    9.465959 N     1 MOL    -0.5650 ****
 24 C18     6.478921   -2.045993   10.169758 CT    1 MOL    -0.3231 ****
 25 N       3.997412    1.070275   -0.425452 N     1 MOL    -0.7191 ****
 26 C19     3.587019    2.267163   -0.934086 C     1 MOL     0.8539 ****
 27 C20     4.328148    2.727659   -2.172145 CT    1 MOL    -0.3903 ****
 28 O4      2.697134    2.905425   -0.447397 O     1 MOL    -0.6290 ****
 29 H1     -0.403259    1.006147    0.000000 H1    1 MOL     0.1459 ****
 30 H2     -0.364960   -0.516002    0.875939 H1    1 MOL     0.1459 ****
 31 H3     -0.345658   -0.522086   -0.883346 H1    1 MOL     0.1459 ****
 32 H4      1.904244    0.070913   -0.879357 H     1 MOL     0.3572 ****
 33 HB1     3.932135    1.221760    2.980082 HC    1 MOL     0.0997 ****
 34 HB2     5.280920    1.595925    1.907500 HC    1 MOL     0.0997 ****
 35 HB3     3.792711    2.540594    1.848395 HC    1 MOL     0.0997 ****
 36 HB4     4.499171   -1.118427   -0.001156 HC    1 MOL     0.0347 ****
 37 HB5     3.574244   -1.504690    1.419487 HC    1 MOL     0.0347 ****
 38 HC1     6.110225   -1.855488    1.413177 HC    1 MOL     0.0243 ****
 39 HC2     6.295505   -0.136286    1.558185 HC    1 MOL     0.0243 ****
 40 HD1     5.176358   -0.181740    3.766853 HC    1 MOL     0.0171 ****
 41 HD2     6.566318   -1.210096    3.694432 HC    1 MOL     0.0171 ****
 42 HE      3.638103   -2.061473    3.823271 HA    1 MOL     0.1313 ****
 43 HF      4.348345   -4.155367    4.492984 HA    1 MOL     0.1359 ****
 44 HG1     7.170096   -3.360060    3.617519 HC    1 MOL     0.0092 ****
 45 HG2     6.550036   -4.969049    3.825862 HC    1 MOL     0.0092 ****
 46 HH1     8.160695   -4.316223    5.575046 HC    1 MOL     0.0318 ****
 47 HH2     7.157003   -2.991421    6.060473 HC    1 MOL     0.0318 ****
 48 HI1     6.215231   -5.889940    6.145285 HC    1 MOL     0.0435 ****
 49 HI2     5.357448   -4.504670    6.760304 HC    1 MOL     0.0435 ****
 50 HK1     5.899200   -7.035307    8.290596 HC    1 MOL     0.1066 ****
 51 HK2     4.956211   -5.646242    8.777820 HC    1 MOL     0.1066 ****
 52 HK3     6.269210   -6.235162    9.804949 HC    1 MOL     0.1066 ****
 53 HK      8.681048   -5.727590    7.000555 H     1 MOL     0.3529 ****
 54 H26    10.896018   -7.030599    9.397911 HC    1 MOL     0.1047 ****
 55 H27    11.013762   -5.609450    8.367104 HC    1 MOL     0.1047 ****
 56 H28    10.484849   -7.141408    7.678955 HC    1 MOL     0.1047 ****
 57 H29     5.556130   -3.897538    9.823640 H     1 MOL     0.3615 ****
 58 H30     5.547455   -1.735473   10.624587 H1    1 MOL     0.1469 ****
 59 H31     6.801439   -1.286140    9.473172 H1    1 MOL     0.1469 ****
 60 H32     7.235986   -2.148029   10.940599 H1    1 MOL     0.1469 ****
 61 H       4.828120    0.684785   -0.816437 H     1 MOL     0.3570 ****
 62 H34     3.710173    3.434604   -2.706288 HC    1 MOL     0.1060 ****
 63 H35     4.588171    1.902533   -2.825678 HC    1 MOL     0.1060 ****
 64 H36     5.244771    3.226201   -1.873716 HC    1 MOL     0.1060 ****
@<TRIPOS>BOND
    1     1     2 1
    2     1    29 1
    3     1    30 1
    4     1    31 1
    5     2     3 1
    6     2    32 1
    7     3     4 1
    8     3     5 1
    9     5     6 1
   10     5     7 1
   11     5    25 1
   12     6    33 1
   13     6    34 1
   14     6    35 1
   15     7     8 1
   16     7    36 1
   17     7    37 1
   18     8     9 1
   19     8    38 1
   20     8    39 1
   21     9    10 1
   22     9    40 1
   23     9    41 1
   24    10    11 1
   25    10    42 1
   26    11    12 1
   27    11    43 1
   28    12    13 1
   29    12    44 1
   30    12    45 1
   31    13    14 1
   32    13    46 1
   33    13    47 1
   34    14    15 1
   35    14    48 1
   36    14    49 1
   37    15    16 1
   38    15    17 1
   39    15    21 1
   40    16    50 1
   41    16    51 1
   42    16    52 1
   43    17    18 1
   44    17    53 1
   45    18    19 1
   46    18    20 1
   47    19    54 1
   48    19    55 1
   49    19    56 1
   50    21    22 1
   51    21    23 1
   52    23    24 1
   53    23    57 1
   54    24    58 1
   55    24    59 1
   56    24    60 1
   57    25    26 1
   58    25    61 1
   59    26    27 1
   60    26    28 1
   61    27    62 1
   62    27    63 1
   63    27    64 1
@<TRIPOS>SUBSTRUCTURE
      1  MOL              1 ****               0 ****  **** 
