@<TRIPOS>MOLECULE
MOL
   64    63     1     0     1 
SMALL
USER_CHARGES
@<TRIPOS>ATOM
  1 C1      0.000000    0.000000    0.000000 CT    1 MOL    -0.3208 ****
  2 N1      1.448187    0.000000    0.000000 N     1 MOL    -0.5622 ****
  3 C       2.123200    0.475920    1.072365 C     1 MOL     0.8053 ****
  4 O       1.590179    0.696732    2.124447 O     1 MOL    -0.6151 ****
  5 CA      3.650505    0.594143    0.921539 CX    1 MOL     0.0839 ****
  6 C1B     4.198902    1.549248    1.986845 CU    1 MOL    -0.3230 ****
  7 C2B     4.307751   -0.809116    1.023981 CU    1 MOL    -0.0657 ****
  8 CC      4.716782   -1.538514   -0.268421 CU    1 MOL    -0.0109 ****
  9 CD      6.070874   -1.163985   -0.903087 CU    1 MOL     0.0816 ****
 10 CE      7.251960   -1.333557    0.023498 CM    1 MOL    -0.2354 ****
 11 CF      8.093008   -2.353502    0.079241 CM    1 MOL    -0.2653 ****
 12 CY      8.079595   -3.602034   -0.769724 CU    1 MOL     0.1214 ****
 13 CH      9.126101   -3.611987   -1.898570 CU    1 MOL    -0.0354 ****
 14 CI     10.565218   -3.525016   -1.372937 CU    1 MOL    -0.0984 ****
 15 CJ     11.723439   -3.703821   -2.388418 CU    1 MOL     0.1300 ****
 16 C1K    13.044231   -3.511681   -1.625501 CU    1 MOL    -0.3561 ****
 17 N2K    11.665422   -5.056787   -2.924747 N     1 MOL    -0.7186 ****
 18 C15    12.475846   -5.453303   -3.948976 C     1 MOL     0.8537 ****
 19 C16    12.050286   -6.727408   -4.642057 CT    1 MOL    -0.3868 ****
 20 O2     13.453786   -4.842209   -4.279641 O     1 MOL    -0.6323 ****
 21 C3K    11.512682   -2.711413   -3.554365 C     1 MOL     0.7903 ****
 22 OF     10.777608   -2.991149   -4.462849 O     1 MOL    -0.6136 ****
 23 N3     12.099426   -1.499175   -3.453416 N     1 MOL    -0.5650 ****
 24 C18    11.984511   -0.540713   -4.533391 CT    1 MOL    -0.3231 ****
 25 N       3.997412    1.070275   -0.425452 N     1 MOL    -0.7191 ****
 26 C19     3.587019    2.267163   -0.934086 C     1 MOL     0.8539 ****
 27 C20     4.328148    2.727659   -2.172145 CT    1 MOL    -0.3903 ****
 28 O4      2.697134    2.905425   -0.447397 O     1 MOL    -0.6290 ****
 29 H1     -0.403259    1.006147    0.000000 H1    1 MOL     0.1459 ****
 30 H2     -0.364960   -0.516002    0.875939 H1    1 MOL     0.1459 ****
 31 H3     -0.345658   -0.522086   -0.883346 H1    1 MOL     0.1459 ****
 32 H4      1.904244    0.070913   -0.879357 H     1 MOL     0.3572 ****
 33 HB1     3.932135    1.221760    2.980082 HC    1 MOL     0.0997 ****
 34 HB2     5.280920    1.595925    1.907500 HC    1 MOL     0.0997 ****
 35 HB3     3.792711    2.540594    1.848395 HC    1 MOL     0.0997 ****
 36 HB4     3.578079   -1.438126    1.529104 HC    1 MOL     0.0347 ****
 37 HB5     5.162773   -0.740977    1.689244 HC    1 MOL     0.0347 ****
 38 HC1     4.752155   -2.596636   -0.026046 HC    1 MOL     0.0243 ****
 39 HC2     3.940835   -1.427264   -1.018690 HC    1 MOL     0.0243 ****
 40 HD1     6.044094   -0.142218   -1.258951 HC    1 MOL     0.0171 ****
 41 HD2     6.194041   -1.784392   -1.783859 HC    1 MOL     0.0171 ****
 42 HE      7.417360   -0.518688    0.709607 HA    1 MOL     0.1313 ****
 43 HF      8.886755   -2.298743    0.807752 HA    1 MOL     0.1359 ****
 44 HG1     7.101479   -3.744831   -1.212854 HC    1 MOL     0.0092 ****
 45 HG2     8.247758   -4.462150   -0.122797 HC    1 MOL     0.0092 ****
 46 HH1     8.980077   -4.520245   -2.476600 HC    1 MOL     0.0318 ****
 47 HH2     8.928155   -2.792411   -2.576761 HC    1 MOL     0.0318 ****
 48 HI1    10.713082   -4.275670   -0.599511 HC    1 MOL     0.0435 ****
 49 HI2    10.703018   -2.560135   -0.899264 HC    1 MOL     0.0435 ****
 50 HK1    13.146469   -4.311979   -0.901863 HC    1 MOL     0.1066 ****
 51 HK2    13.048793   -2.575360   -1.077174 HC    1 MOL     0.1066 ****
 52 HK3    13.896071   -3.545790   -2.288029 HC    1 MOL     0.1066 ****
 53 HK     10.763959   -5.476391   -2.921962 H     1 MOL     0.3529 ****
 54 H26    12.901105   -7.153626   -5.151474 HC    1 MOL     0.1047 ****
 55 H27    11.289975   -6.483514   -5.377971 HC    1 MOL     0.1047 ****
 56 H28    11.636282   -7.450926   -3.948153 HC    1 MOL     0.1047 ****
 57 H29    12.868985   -1.396526   -2.834907 H     1 MOL     0.3615 ****
 58 H30    12.414559    0.397941   -4.209498 H1    1 MOL     0.1469 ****
 59 H31    10.943134   -0.386452   -4.774976 H1    1 MOL     0.1469 ****
 60 H32    12.497603   -0.878602   -5.427998 H1    1 MOL     0.1469 ****
 61 H       4.828120    0.684785   -0.816437 H     1 MOL     0.3570 ****
 62 H34     3.710173    3.434604   -2.706288 HC    1 MOL     0.1060 ****
 63 H35     4.588171    1.902533   -2.825678 HC    1 MOL     0.1060 ****
 64 H36     5.244771    3.226201   -1.873716 HC    1 MOL     0.1060 ****
@<TRIPOS>BOND
    1     1     2 1
    2     1    29 1
    3     1    30 1
    4     1    31 1
    5     2     3 1
    6     2    32 1
    7     3     4 1
    8     3     5 1
    9     5     6 1
   10     5     7 1
   11     5    25 1
   12     6    33 1
   13     6    34 1
   14     6    35 1
   15     7     8 1
   16     7    36 1
   17     7    37 1
   18     8     9 1
   19     8    38 1
   20     8    39 1
   21     9    10 1
   22     9    40 1
   23     9    41 1
   24    10    11 1
   25    10    42 1
   26    11    12 1
   27    11    43 1
   28    12    13 1
   29    12    44 1
   30    12    45 1
   31    13    14 1
   32    13    46 1
   33    13    47 1
   34    14    15 1
   35    14    48 1
   36    14    49 1
   37    15    16 1
   38    15    17 1
   39    15    21 1
   40    16    50 1
   41    16    51 1
   42    16    52 1
   43    17    18 1
   44    17    53 1
   45    18    19 1
   46    18    20 1
   47    19    54 1
   48    19    55 1
   49    19    56 1
   50    21    22 1
   51    21    23 1
   52    23    24 1
   53    23    57 1
   54    24    58 1
   55    24    59 1
   56    24    60 1
   57    25    26 1
   58    25    61 1
   59    26    27 1
   60    26    28 1
   61    27    62 1
   62    27    63 1
   63    27    64 1
@<TRIPOS>SUBSTRUCTURE
      1  MOL              1 ****               0 ****  **** 
