@<TRIPOS>MOLECULE
MOL
   64    63     1     0     1 
SMALL
USER_CHARGES
@<TRIPOS>ATOM
  1 C1      0.000000    0.000000    0.000000 CT    1 MOL    -0.3208 ****
  2 N1      1.448187    0.000000    0.000000 N     1 MOL    -0.5622 ****
  3 C       2.123200    0.475920    1.072365 C     1 MOL     0.8053 ****
  4 O       1.590179    0.696732    2.124447 O     1 MOL    -0.6151 ****
  5 CA      3.650505    0.594143    0.921539 CX    1 MOL     0.0839 ****
  6 C1B     4.198902    1.549248    1.986845 CU    1 MOL    -0.3230 ****
  7 C2B     4.307751   -0.809116    1.023981 CU    1 MOL    -0.0657 ****
  8 CC      3.617284   -2.008364    0.349671 CU    1 MOL    -0.0109 ****
  9 CD      3.859862   -2.218184   -1.158231 CU    1 MOL     0.0816 ****
 10 CE      5.316961   -2.353519   -1.533495 CM    1 MOL    -0.2354 ****
 11 CF      5.993975   -3.469999   -1.747694 CM    1 MOL    -0.2653 ****
 12 CY      5.477267   -4.886529   -1.668882 CU    1 MOL     0.1214 ****
 13 CH      5.196437   -5.535573   -3.036157 CU    1 MOL    -0.0354 ****
 14 CI      6.451897   -5.636990   -3.912768 CU    1 MOL    -0.0984 ****
 15 CJ      6.349868   -6.428969   -5.242056 CU    1 MOL     0.1300 ****
 16 C1K     7.710466   -6.325580   -5.950247 CU    1 MOL    -0.3561 ****
 17 N2K     6.069887   -7.824003   -4.930574 N     1 MOL    -0.7186 ****
 18 C15     5.785034   -8.730291   -5.910655 C     1 MOL     0.8537 ****
 19 C16     5.152934  -10.015202   -5.426651 CT    1 MOL    -0.3868 ****
 20 O2      6.016268   -8.529469   -7.070544 O     1 MOL    -0.6323 ****
 21 C3K     5.163846   -5.867860   -6.058901 C     1 MOL     0.7903 ****
 22 OF      4.044363   -6.245287   -5.839276 O     1 MOL    -0.6136 ****
 23 N3      5.427627   -4.878554   -6.939625 N     1 MOL    -0.5650 ****
 24 C18     4.371140   -4.343131   -7.773506 CT    1 MOL    -0.3231 ****
 25 N       3.997412    1.070275   -0.425452 N     1 MOL    -0.7191 ****
 26 C19     3.587019    2.267163   -0.934086 C     1 MOL     0.8539 ****
 27 C20     4.328148    2.727659   -2.172145 CT    1 MOL    -0.3903 ****
 28 O4      2.697134    2.905425   -0.447397 O     1 MOL    -0.6290 ****
 29 H1     -0.403259    1.006147    0.000000 H1    1 MOL     0.1459 ****
 30 H2     -0.364960   -0.516002    0.875939 H1    1 MOL     0.1459 ****
 31 H3     -0.345658   -0.522086   -0.883346 H1    1 MOL     0.1459 ****
 32 H4      1.904244    0.070913   -0.879357 H     1 MOL     0.3572 ****
 33 HB1     3.932135    1.221760    2.980082 HC    1 MOL     0.0997 ****
 34 HB2     5.280920    1.595925    1.907500 HC    1 MOL     0.0997 ****
 35 HB3     3.792711    2.540594    1.848395 HC    1 MOL     0.0997 ****
 36 HB4     4.364247   -1.029124    2.087761 HC    1 MOL     0.0347 ****
 37 HB5     5.332594   -0.735562    0.673887 HC    1 MOL     0.0347 ****
 38 HC1     3.973078   -2.896588    0.863565 HC    1 MOL     0.0243 ****
 39 HC2     2.547298   -1.967247    0.525204 HC    1 MOL     0.0243 ****
 40 HD1     3.423614   -1.403327   -1.721312 HC    1 MOL     0.0171 ****
 41 HD2     3.314118   -3.108841   -1.449312 HC    1 MOL     0.0171 ****
 42 HE      5.851706   -1.423452   -1.639032 HA    1 MOL     0.1313 ****
 43 HF      7.034865   -3.372083   -2.013628 HA    1 MOL     0.1359 ****
 44 HG1     4.566796   -4.922525   -1.083039 HC    1 MOL     0.0092 ****
 45 HG2     6.207030   -5.491669   -1.132369 HC    1 MOL     0.0092 ****
 46 HH1     4.771724   -6.518881   -2.854225 HC    1 MOL     0.0318 ****
 47 HH2     4.429649   -4.970386   -3.549411 HC    1 MOL     0.0318 ****
 48 HI1     7.255773   -6.095074   -3.340513 HC    1 MOL     0.0435 ****
 49 HI2     6.781047   -4.635351   -4.163226 HC    1 MOL     0.0435 ****
 50 HK1     8.454443   -6.834186   -5.348250 HC    1 MOL     0.1066 ****
 51 HK2     8.024357   -5.291653   -6.049490 HC    1 MOL     0.1066 ****
 52 HK3     7.689537   -6.791200   -6.924155 HC    1 MOL     0.1066 ****
 53 HK      5.596902   -7.980300   -4.070011 H     1 MOL     0.3529 ****
 54 H26     5.305937  -10.785152   -6.167481 HC    1 MOL     0.1047 ****
 55 H27     4.085815   -9.852659   -5.308499 HC    1 MOL     0.1047 ****
 56 H28     5.558576  -10.335878   -4.473234 HC    1 MOL     0.1047 ****
 57 H29     6.360217   -4.768174   -7.261188 H     1 MOL     0.3615 ****
 58 H30     4.756802   -3.488325   -8.313407 H1    1 MOL     0.1469 ****
 59 H31     3.544073   -4.025745   -7.155564 H1    1 MOL     0.1469 ****
 60 H32     4.006377   -5.078682   -8.483201 H1    1 MOL     0.1469 ****
 61 H       4.828120    0.684785   -0.816437 H     1 MOL     0.3570 ****
 62 H34     3.710173    3.434604   -2.706288 HC    1 MOL     0.1060 ****
 63 H35     4.588171    1.902533   -2.825678 HC    1 MOL     0.1060 ****
 64 H36     5.244771    3.226201   -1.873716 HC    1 MOL     0.1060 ****
@<TRIPOS>BOND
    1     1     2 1
    2     1    29 1
    3     1    30 1
    4     1    31 1
    5     2     3 1
    6     2    32 1
    7     3     4 1
    8     3     5 1
    9     5     6 1
   10     5     7 1
   11     5    25 1
   12     6    33 1
   13     6    34 1
   14     6    35 1
   15     7     8 1
   16     7    36 1
   17     7    37 1
   18     8     9 1
   19     8    38 1
   20     8    39 1
   21     9    10 1
   22     9    40 1
   23     9    41 1
   24    10    11 1
   25    10    42 1
   26    11    12 1
   27    11    43 1
   28    12    13 1
   29    12    44 1
   30    12    45 1
   31    13    14 1
   32    13    46 1
   33    13    47 1
   34    14    15 1
   35    14    48 1
   36    14    49 1
   37    15    16 1
   38    15    17 1
   39    15    21 1
   40    16    50 1
   41    16    51 1
   42    16    52 1
   43    17    18 1
   44    17    53 1
   45    18    19 1
   46    18    20 1
   47    19    54 1
   48    19    55 1
   49    19    56 1
   50    21    22 1
   51    21    23 1
   52    23    24 1
   53    23    57 1
   54    24    58 1
   55    24    59 1
   56    24    60 1
   57    25    26 1
   58    25    61 1
   59    26    27 1
   60    26    28 1
   61    27    62 1
   62    27    63 1
   63    27    64 1
@<TRIPOS>SUBSTRUCTURE
      1  MOL              1 ****               0 ****  **** 
