@<TRIPOS>MOLECULE
MOL
   64    63     1     0     1 
SMALL
USER_CHARGES
@<TRIPOS>ATOM
  1 C1      0.000000    0.000000    0.000000 CT    1 MOL    -0.3208 ****
  2 N1      1.448187    0.000000    0.000000 N     1 MOL    -0.5622 ****
  3 C       2.123200    0.475920    1.072365 C     1 MOL     0.8053 ****
  4 O       1.590179    0.696732    2.124447 O     1 MOL    -0.6151 ****
  5 CA      3.650505    0.594143    0.921539 CX    1 MOL     0.0839 ****
  6 C1B     4.198902    1.549248    1.986845 CU    1 MOL    -0.3230 ****
  7 C2B     4.307751   -0.809116    1.023981 CU    1 MOL    -0.0657 ****
  8 CC      3.524386   -1.953928    1.691349 CU    1 MOL    -0.0109 ****
  9 CD      2.494467   -2.712487    0.830832 CU    1 MOL     0.0816 ****
 10 CE      3.072758   -3.323633   -0.423902 CM    1 MOL    -0.2354 ****
 11 CF      3.450994   -4.577952   -0.609322 CM    1 MOL    -0.2653 ****
 12 CY      3.399080   -5.709672    0.388810 CU    1 MOL     0.1214 ****
 13 CH      2.231487   -6.689823    0.175280 CU    1 MOL    -0.0354 ****
 14 CI      2.287021   -7.388902   -1.189681 CU    1 MOL    -0.0984 ****
 15 CJ      1.274265   -8.530488   -1.464912 CU    1 MOL     0.1300 ****
 16 C1K     1.498472   -9.012949   -2.907276 CU    1 MOL    -0.3561 ****
 17 N2K     1.544359   -9.623131   -0.540405 N     1 MOL    -0.7186 ****
 18 C15     0.717295  -10.705551   -0.454450 C     1 MOL     0.8537 ****
 19 C16     0.902443  -11.552633    0.783684 CT    1 MOL    -0.3868 ****
 20 O2     -0.097178  -10.971138   -1.294236 O     1 MOL    -0.6323 ****
 21 C3K    -0.150836   -8.001358   -1.185923 C     1 MOL     0.7903 ****
 22 OF     -0.585296   -7.992187   -0.065616 O     1 MOL    -0.6136 ****
 23 N3     -0.829487   -7.464876   -2.223035 N     1 MOL    -0.5650 ****
 24 C18    -2.188346   -6.996981   -2.041981 CT    1 MOL    -0.3231 ****
 25 N       3.997412    1.070275   -0.425452 N     1 MOL    -0.7191 ****
 26 C19     3.587019    2.267163   -0.934086 C     1 MOL     0.8539 ****
 27 C20     4.328148    2.727659   -2.172145 CT    1 MOL    -0.3903 ****
 28 O4      2.697134    2.905425   -0.447397 O     1 MOL    -0.6290 ****
 29 H1     -0.403259    1.006147    0.000000 H1    1 MOL     0.1459 ****
 30 H2     -0.364960   -0.516002    0.875939 H1    1 MOL     0.1459 ****
 31 H3     -0.345658   -0.522086   -0.883346 H1    1 MOL     0.1459 ****
 32 H4      1.904244    0.070913   -0.879357 H     1 MOL     0.3572 ****
 33 HB1     3.932135    1.221760    2.980082 HC    1 MOL     0.0997 ****
 34 HB2     5.280920    1.595925    1.907500 HC    1 MOL     0.0997 ****
 35 HB3     3.792711    2.540594    1.848395 HC    1 MOL     0.0997 ****
 36 HB4     5.217877   -0.664774    1.601959 HC    1 MOL     0.0347 ****
 37 HB5     4.623240   -1.114711    0.031329 HC    1 MOL     0.0347 ****
 38 HC1     4.262575   -2.675990    2.027983 HC    1 MOL     0.0243 ****
 39 HC2     3.027865   -1.591748    2.585590 HC    1 MOL     0.0243 ****
 40 HD1     1.679505   -2.053644    0.560411 HC    1 MOL     0.0171 ****
 41 HD2     2.060294   -3.483917    1.457110 HC    1 MOL     0.0171 ****
 42 HE      3.179249   -2.647228   -1.256518 HA    1 MOL     0.1313 ****
 43 HF      3.839712   -4.837067   -1.581700 HA    1 MOL     0.1359 ****
 44 HG1     3.333762   -5.318987    1.397058 HC    1 MOL     0.0092 ****
 45 HG2     4.337804   -6.259878    0.337176 HC    1 MOL     0.0092 ****
 46 HH1     2.257856   -7.416189    0.982790 HC    1 MOL     0.0318 ****
 47 HH2     1.294818   -6.158878    0.282886 HC    1 MOL     0.0318 ****
 48 HI1     3.278190   -7.811912   -1.338612 HC    1 MOL     0.0435 ****
 49 HI2     2.147272   -6.645228   -1.965419 HC    1 MOL     0.0435 ****
 50 HK1     2.484790   -9.456956   -2.975210 HC    1 MOL     0.1066 ****
 51 HK2     1.465842   -8.185243   -3.608146 HC    1 MOL     0.1066 ****
 52 HK3     0.772833   -9.758593   -3.195723 HC    1 MOL     0.1066 ****
 53 HK      1.971916   -9.357854    0.317228 H     1 MOL     0.3529 ****
 54 H26     0.505806  -12.539401    0.599216 HC    1 MOL     0.1047 ****
 55 H27     0.345626  -11.100200    1.598782 HC    1 MOL     0.1047 ****
 56 H28     1.944005  -11.623594    1.077786 HC    1 MOL     0.1047 ****
 57 H29    -0.550600   -7.704506   -3.145049 H     1 MOL     0.3615 ****
 58 H30    -2.505634   -6.498167   -2.948311 H1    1 MOL     0.1469 ****
 59 H31    -2.226308   -6.295236   -1.221775 H1    1 MOL     0.1469 ****
 60 H32    -2.870049   -7.813437   -1.826496 H1    1 MOL     0.1469 ****
 61 H       4.828120    0.684785   -0.816437 H     1 MOL     0.3570 ****
 62 H34     3.710173    3.434604   -2.706288 HC    1 MOL     0.1060 ****
 63 H35     4.588171    1.902533   -2.825678 HC    1 MOL     0.1060 ****
 64 H36     5.244771    3.226201   -1.873716 HC    1 MOL     0.1060 ****
@<TRIPOS>BOND
    1     1     2 1
    2     1    29 1
    3     1    30 1
    4     1    31 1
    5     2     3 1
    6     2    32 1
    7     3     4 1
    8     3     5 1
    9     5     6 1
   10     5     7 1
   11     5    25 1
   12     6    33 1
   13     6    34 1
   14     6    35 1
   15     7     8 1
   16     7    36 1
   17     7    37 1
   18     8     9 1
   19     8    38 1
   20     8    39 1
   21     9    10 1
   22     9    40 1
   23     9    41 1
   24    10    11 1
   25    10    42 1
   26    11    12 1
   27    11    43 1
   28    12    13 1
   29    12    44 1
   30    12    45 1
   31    13    14 1
   32    13    46 1
   33    13    47 1
   34    14    15 1
   35    14    48 1
   36    14    49 1
   37    15    16 1
   38    15    17 1
   39    15    21 1
   40    16    50 1
   41    16    51 1
   42    16    52 1
   43    17    18 1
   44    17    53 1
   45    18    19 1
   46    18    20 1
   47    19    54 1
   48    19    55 1
   49    19    56 1
   50    21    22 1
   51    21    23 1
   52    23    24 1
   53    23    57 1
   54    24    58 1
   55    24    59 1
   56    24    60 1
   57    25    26 1
   58    25    61 1
   59    26    27 1
   60    26    28 1
   61    27    62 1
   62    27    63 1
   63    27    64 1
@<TRIPOS>SUBSTRUCTURE
      1  MOL              1 ****               0 ****  **** 
