@<TRIPOS>MOLECULE
MOL
   64    63     1     0     1 
SMALL
USER_CHARGES
@<TRIPOS>ATOM
  1 C1      0.000000    0.000000    0.000000 CT    1 MOL    -0.3208 ****
  2 N1      1.448187    0.000000    0.000000 N     1 MOL    -0.5622 ****
  3 C       2.123200    0.475920    1.072365 C     1 MOL     0.8053 ****
  4 O       1.590179    0.696732    2.124447 O     1 MOL    -0.6151 ****
  5 CA      3.650505    0.594143    0.921539 CX    1 MOL     0.0839 ****
  6 C1B     4.198902    1.549248    1.986845 CU    1 MOL    -0.3230 ****
  7 C2B     4.307751   -0.809116    1.023981 CU    1 MOL    -0.0657 ****
  8 CC      5.798281   -0.963347    0.671609 CU    1 MOL    -0.0109 ****
  9 CD      6.830788   -0.613529    1.761653 CU    1 MOL     0.0816 ****
 10 CE      6.657362   -1.391469    3.045012 CM    1 MOL    -0.2354 ****
 11 CF      7.317713   -2.472142    3.428208 CM    1 MOL    -0.2653 ****
 12 CY      8.408396   -3.196469    2.676201 CU    1 MOL     0.1214 ****
 13 CH      9.830575   -2.910466    3.191151 CU    1 MOL    -0.0354 ****
 14 CI     10.028447   -3.336581    4.652036 CU    1 MOL    -0.0984 ****
 15 CJ     11.460780   -3.269764    5.242465 CU    1 MOL     0.1300 ****
 16 C1K    11.374128   -3.684642    6.720240 CU    1 MOL    -0.3561 ****
 17 N2K    12.303980   -4.214058    4.522150 N     1 MOL    -0.7186 ****
 18 C15    13.651916   -4.268888    4.729804 C     1 MOL     0.8537 ****
 19 C16    14.431580   -5.005648    3.664857 CT    1 MOL    -0.3868 ****
 20 O2     14.184696   -3.772554    5.683187 O     1 MOL    -0.6323 ****
 21 C3K    12.021228   -1.847759    5.013280 C     1 MOL     0.7903 ****
 22 OF     12.525642   -1.557380    3.962007 O     1 MOL    -0.6136 ****
 23 N3     11.827008   -0.937247    5.991660 N     1 MOL    -0.5650 ****
 24 C18    12.370757    0.399170    5.863099 CT    1 MOL    -0.3231 ****
 25 N       3.997412    1.070275   -0.425452 N     1 MOL    -0.7191 ****
 26 C19     3.587019    2.267163   -0.934086 C     1 MOL     0.8539 ****
 27 C20     4.328148    2.727659   -2.172145 CT    1 MOL    -0.3903 ****
 28 O4      2.697134    2.905425   -0.447397 O     1 MOL    -0.6290 ****
 29 H1     -0.403259    1.006147    0.000000 H1    1 MOL     0.1459 ****
 30 H2     -0.364960   -0.516002    0.875939 H1    1 MOL     0.1459 ****
 31 H3     -0.345658   -0.522086   -0.883346 H1    1 MOL     0.1459 ****
 32 H4      1.904244    0.070913   -0.879357 H     1 MOL     0.3572 ****
 33 HB1     3.932135    1.221760    2.980082 HC    1 MOL     0.0997 ****
 34 HB2     5.280920    1.595925    1.907500 HC    1 MOL     0.0997 ****
 35 HB3     3.792711    2.540594    1.848395 HC    1 MOL     0.0997 ****
 36 HB4     3.749832   -1.444511    0.339715 HC    1 MOL     0.0347 ****
 37 HB5     4.126917   -1.202026    2.019573 HC    1 MOL     0.0347 ****
 38 HC1     5.945047   -2.006338    0.406568 HC    1 MOL     0.0243 ****
 39 HC2     6.029837   -0.390559   -0.220394 HC    1 MOL     0.0243 ****
 40 HD1     6.793656    0.445453    1.981976 HC    1 MOL     0.0171 ****
 41 HD2     7.813709   -0.797566    1.342331 HC    1 MOL     0.0171 ****
 42 HE      5.907876   -1.006119    3.717240 HA    1 MOL     0.1313 ****
 43 HF      7.060353   -2.892831    4.387660 HA    1 MOL     0.1359 ****
 44 HG1     8.371498   -2.942916    1.623673 HC    1 MOL     0.0092 ****
 45 HG2     8.218047   -4.267302    2.736858 HC    1 MOL     0.0092 ****
 46 HH1    10.528475   -3.428828    2.539529 HC    1 MOL     0.0318 ****
 47 HH2    10.045915   -1.855972    3.079342 HC    1 MOL     0.0318 ****
 48 HI1     9.689344   -4.362587    4.777952 HC    1 MOL     0.0435 ****
 49 HI2     9.395702   -2.721276    5.280832 HC    1 MOL     0.0435 ****
 50 HK1    11.070973   -4.723892    6.771608 HC    1 MOL     0.1066 ****
 51 HK2    10.627048   -3.101800    7.248962 HC    1 MOL     0.1066 ****
 52 HK3    12.326966   -3.586707    7.218484 HC    1 MOL     0.1066 ****
 53 HK     12.018701   -4.413263    3.590675 H     1 MOL     0.3529 ****
 54 H26    15.379726   -5.319191    4.074456 HC    1 MOL     0.1047 ****
 55 H27    14.616801   -4.325468    2.838919 HC    1 MOL     0.1047 ****
 56 H28    13.891638   -5.866493    3.285657 HC    1 MOL     0.1047 ****
 57 H29    11.634889   -1.263178    6.909358 H     1 MOL     0.3615 ****
 58 H30    12.005065    1.001433    6.684360 H1    1 MOL     0.1469 ****
 59 H31    12.044167    0.837857    4.931692 H1    1 MOL     0.1469 ****
 60 H32    13.455885    0.395643    5.878541 H1    1 MOL     0.1469 ****
 61 H       4.828120    0.684785   -0.816437 H     1 MOL     0.3570 ****
 62 H34     3.710173    3.434604   -2.706288 HC    1 MOL     0.1060 ****
 63 H35     4.588171    1.902533   -2.825678 HC    1 MOL     0.1060 ****
 64 H36     5.244771    3.226201   -1.873716 HC    1 MOL     0.1060 ****
@<TRIPOS>BOND
    1     1     2 1
    2     1    29 1
    3     1    30 1
    4     1    31 1
    5     2     3 1
    6     2    32 1
    7     3     4 1
    8     3     5 1
    9     5     6 1
   10     5     7 1
   11     5    25 1
   12     6    33 1
   13     6    34 1
   14     6    35 1
   15     7     8 1
   16     7    36 1
   17     7    37 1
   18     8     9 1
   19     8    38 1
   20     8    39 1
   21     9    10 1
   22     9    40 1
   23     9    41 1
   24    10    11 1
   25    10    42 1
   26    11    12 1
   27    11    43 1
   28    12    13 1
   29    12    44 1
   30    12    45 1
   31    13    14 1
   32    13    46 1
   33    13    47 1
   34    14    15 1
   35    14    48 1
   36    14    49 1
   37    15    16 1
   38    15    17 1
   39    15    21 1
   40    16    50 1
   41    16    51 1
   42    16    52 1
   43    17    18 1
   44    17    53 1
   45    18    19 1
   46    18    20 1
   47    19    54 1
   48    19    55 1
   49    19    56 1
   50    21    22 1
   51    21    23 1
   52    23    24 1
   53    23    57 1
   54    24    58 1
   55    24    59 1
   56    24    60 1
   57    25    26 1
   58    25    61 1
   59    26    27 1
   60    26    28 1
   61    27    62 1
   62    27    63 1
   63    27    64 1
@<TRIPOS>SUBSTRUCTURE
      1  MOL              1 ****               0 ****  **** 
