@<TRIPOS>MOLECULE
MOL
   64    63     1     0     1 
SMALL
USER_CHARGES
@<TRIPOS>ATOM
  1 C1      0.000000    0.000000    0.000000 CT    1 MOL    -0.3208 ****
  2 N1      1.448187    0.000000    0.000000 N     1 MOL    -0.5622 ****
  3 C       2.123200    0.475920    1.072365 C     1 MOL     0.8053 ****
  4 O       1.590179    0.696732    2.124447 O     1 MOL    -0.6151 ****
  5 CA      3.650505    0.594143    0.921539 CX    1 MOL     0.0839 ****
  6 C1B     4.198902    1.549248    1.986845 CU    1 MOL    -0.3230 ****
  7 C2B     4.307751   -0.809116    1.023981 CU    1 MOL    -0.0657 ****
  8 CC      5.127061   -1.338924   -0.166677 CU    1 MOL    -0.0109 ****
  9 CD      6.592109   -0.875067   -0.289597 CU    1 MOL     0.0816 ****
 10 CE      7.437655   -1.180812    0.924425 CM    1 MOL    -0.2354 ****
 11 CF      8.266469   -2.198163    1.094195 CM    1 MOL    -0.2653 ****
 12 CY      8.571634   -3.306931    0.115798 CU    1 MOL     0.1214 ****
 13 CH      9.913762   -3.149838   -0.621481 CU    1 MOL    -0.0354 ****
 14 CI     11.116103   -3.142527    0.332058 CU    1 MOL    -0.0984 ****
 15 CJ     12.537274   -3.169291   -0.287783 CU    1 MOL     0.1300 ****
 16 C1K    13.549415   -3.093117    0.866869 CU    1 MOL    -0.3561 ****
 17 N2K    12.708713   -4.427694   -1.000918 N     1 MOL    -0.7186 ****
 18 C15    13.811927   -4.668288   -1.767788 C     1 MOL     0.8537 ****
 19 C16    13.678601   -5.825265   -2.731341 CT    1 MOL    -0.3868 ****
 20 O2     14.815210   -4.015393   -1.688453 O     1 MOL    -0.6323 ****
 21 C3K    12.650051   -2.014793   -1.309125 C     1 MOL     0.7903 ****
 22 OF     12.243374   -2.156294   -2.430963 O     1 MOL    -0.6136 ****
 23 N3     13.121411   -0.831238   -0.860796 N     1 MOL    -0.5650 ****
 24 C18    13.300407    0.276888   -1.776339 CT    1 MOL    -0.3231 ****
 25 N       3.997412    1.070275   -0.425452 N     1 MOL    -0.7191 ****
 26 C19     3.587019    2.267163   -0.934086 C     1 MOL     0.8539 ****
 27 C20     4.328148    2.727659   -2.172145 CT    1 MOL    -0.3903 ****
 28 O4      2.697134    2.905425   -0.447397 O     1 MOL    -0.6290 ****
 29 H1     -0.403259    1.006147    0.000000 H1    1 MOL     0.1459 ****
 30 H2     -0.364960   -0.516002    0.875939 H1    1 MOL     0.1459 ****
 31 H3     -0.345658   -0.522086   -0.883346 H1    1 MOL     0.1459 ****
 32 H4      1.904244    0.070913   -0.879357 H     1 MOL     0.3572 ****
 33 HB1     3.932135    1.221760    2.980082 HC    1 MOL     0.0997 ****
 34 HB2     5.280920    1.595925    1.907500 HC    1 MOL     0.0997 ****
 35 HB3     3.792711    2.540594    1.848395 HC    1 MOL     0.0997 ****
 36 HB4     3.487641   -1.505733    1.183246 HC    1 MOL     0.0347 ****
 37 HB5     4.912853   -0.840850    1.924606 HC    1 MOL     0.0347 ****
 38 HC1     5.134461   -2.421311   -0.077225 HC    1 MOL     0.0243 ****
 39 HC2     4.615063   -1.117215   -1.097310 HC    1 MOL     0.0243 ****
 40 HD1     6.629418    0.188199   -0.488183 HC    1 MOL     0.0171 ****
 41 HD2     7.008210   -1.358011   -1.166785 HC    1 MOL     0.0171 ****
 42 HE      7.346798   -0.476825    1.735758 HA    1 MOL     0.1313 ****
 43 HF      8.794500   -2.252481    2.033341 HA    1 MOL     0.1359 ****
 44 HG1     7.784661   -3.381920   -0.624821 HC    1 MOL     0.0092 ****
 45 HG2     8.571868   -4.253585    0.654723 HC    1 MOL     0.0092 ****
 46 HH1     9.994077   -3.962224   -1.338386 HC    1 MOL     0.0318 ****
 47 HH2     9.896679   -2.238623   -1.204769 HC    1 MOL     0.0318 ****
 48 HI1    11.053167   -3.999686    0.999030 HC    1 MOL     0.0435 ****
 49 HI2    11.057464   -2.258660    0.956310 HC    1 MOL     0.0435 ****
 50 HK1    13.460679   -3.991960    1.465857 HC    1 MOL     0.1066 ****
 51 HK2    13.342491   -2.248501    1.515859 HC    1 MOL     0.1066 ****
 52 HK3    14.564284   -3.028991    0.504008 HC    1 MOL     0.1066 ****
 53 HK     11.870165   -4.842617   -1.337651 H     1 MOL     0.3529 ****
 54 H26    14.663327   -6.171623   -3.005951 HC    1 MOL     0.1047 ****
 55 H27    13.171001   -5.474517   -3.624898 HC    1 MOL     0.1047 ****
 56 H28    13.104816   -6.643509   -2.309880 HC    1 MOL     0.1047 ****
 57 H29    13.658076   -0.821865   -0.025803 H     1 MOL     0.3615 ****
 58 H30    13.566783    1.156892   -1.205762 H1    1 MOL     0.1469 ****
 59 H31    12.377802    0.465803   -2.305240 H1    1 MOL     0.1469 ****
 60 H32    14.078493    0.075193   -2.505487 H1    1 MOL     0.1469 ****
 61 H       4.828120    0.684785   -0.816437 H     1 MOL     0.3570 ****
 62 H34     3.710173    3.434604   -2.706288 HC    1 MOL     0.1060 ****
 63 H35     4.588171    1.902533   -2.825678 HC    1 MOL     0.1060 ****
 64 H36     5.244771    3.226201   -1.873716 HC    1 MOL     0.1060 ****
@<TRIPOS>BOND
    1     1     2 1
    2     1    29 1
    3     1    30 1
    4     1    31 1
    5     2     3 1
    6     2    32 1
    7     3     4 1
    8     3     5 1
    9     5     6 1
   10     5     7 1
   11     5    25 1
   12     6    33 1
   13     6    34 1
   14     6    35 1
   15     7     8 1
   16     7    36 1
   17     7    37 1
   18     8     9 1
   19     8    38 1
   20     8    39 1
   21     9    10 1
   22     9    40 1
   23     9    41 1
   24    10    11 1
   25    10    42 1
   26    11    12 1
   27    11    43 1
   28    12    13 1
   29    12    44 1
   30    12    45 1
   31    13    14 1
   32    13    46 1
   33    13    47 1
   34    14    15 1
   35    14    48 1
   36    14    49 1
   37    15    16 1
   38    15    17 1
   39    15    21 1
   40    16    50 1
   41    16    51 1
   42    16    52 1
   43    17    18 1
   44    17    53 1
   45    18    19 1
   46    18    20 1
   47    19    54 1
   48    19    55 1
   49    19    56 1
   50    21    22 1
   51    21    23 1
   52    23    24 1
   53    23    57 1
   54    24    58 1
   55    24    59 1
   56    24    60 1
   57    25    26 1
   58    25    61 1
   59    26    27 1
   60    26    28 1
   61    27    62 1
   62    27    63 1
   63    27    64 1
@<TRIPOS>SUBSTRUCTURE
      1  MOL              1 ****               0 ****  **** 
