@<TRIPOS>MOLECULE
MOL
   64    63     1     0     1 
SMALL
USER_CHARGES
@<TRIPOS>ATOM
  1 C1      0.000000    0.000000    0.000000 CT    1 MOL    -0.3208 ****
  2 N1      1.448187    0.000000    0.000000 N     1 MOL    -0.5622 ****
  3 C       2.123200    0.475920    1.072365 C     1 MOL     0.8053 ****
  4 O       1.590179    0.696732    2.124447 O     1 MOL    -0.6151 ****
  5 CA      3.650505    0.594143    0.921539 CX    1 MOL     0.0839 ****
  6 C1B     4.198902    1.549248    1.986845 CU    1 MOL    -0.3230 ****
  7 C2B     4.307751   -0.809116    1.023981 CU    1 MOL    -0.0657 ****
  8 CC      3.632694   -1.888769    1.889013 CU    1 MOL    -0.0109 ****
  9 CD      2.475946   -2.689895    1.259118 CU    1 MOL     0.0816 ****
 10 CE      2.846161   -3.400400   -0.021664 CM    1 MOL    -0.2354 ****
 11 CF      3.183427   -4.671211   -0.170149 CM    1 MOL    -0.2653 ****
 12 CY      3.282813   -5.726430    0.905207 CU    1 MOL     0.1214 ****
 13 CH      2.090652   -6.699190    0.950543 CU    1 MOL    -0.0354 ****
 14 CI      1.926790   -7.496357   -0.350452 CU    1 MOL    -0.0984 ****
 15 CJ      0.876916   -8.637254   -0.378103 CU    1 MOL     0.1300 ****
 16 C1K     0.868668   -9.226938   -1.797841 CU    1 MOL    -0.3561 ****
 17 N2K     1.282932   -9.664407    0.571444 N     1 MOL    -0.7186 ****
 18 C15     0.473596  -10.723291    0.866054 C     1 MOL     0.8537 ****
 19 C16     0.846456  -11.481336    2.119508 CT    1 MOL    -0.3868 ****
 20 O2     -0.464347  -11.035034    0.186185 O     1 MOL    -0.6323 ****
 21 C3K    -0.483530   -8.064743    0.080309 C     1 MOL     0.7903 ****
 22 OF     -0.736255   -7.966777    1.250976 O     1 MOL    -0.6136 ****
 23 N3     -1.313865   -7.593321   -0.874828 N     1 MOL    -0.5650 ****
 24 C18    -2.624649   -7.090127   -0.518679 CT    1 MOL    -0.3231 ****
 25 N       3.997412    1.070275   -0.425452 N     1 MOL    -0.7191 ****
 26 C19     3.587019    2.267163   -0.934086 C     1 MOL     0.8539 ****
 27 C20     4.328148    2.727659   -2.172145 CT    1 MOL    -0.3903 ****
 28 O4      2.697134    2.905425   -0.447397 O     1 MOL    -0.6290 ****
 29 H1     -0.403259    1.006147    0.000000 H1    1 MOL     0.1459 ****
 30 H2     -0.364960   -0.516002    0.875939 H1    1 MOL     0.1459 ****
 31 H3     -0.345658   -0.522086   -0.883346 H1    1 MOL     0.1459 ****
 32 H4      1.904244    0.070913   -0.879357 H     1 MOL     0.3572 ****
 33 HB1     3.932135    1.221760    2.980082 HC    1 MOL     0.0997 ****
 34 HB2     5.280920    1.595925    1.907500 HC    1 MOL     0.0997 ****
 35 HB3     3.792711    2.540594    1.848395 HC    1 MOL     0.0997 ****
 36 HB4     5.298278   -0.638936    1.440054 HC    1 MOL     0.0347 ****
 37 HB5     4.461400   -1.191361    0.019710 HC    1 MOL     0.0347 ****
 38 HC1     4.410565   -2.597129    2.158758 HC    1 MOL     0.0243 ****
 39 HC2     3.285106   -1.454117    2.820482 HC    1 MOL     0.0243 ****
 40 HD1     1.632320   -2.038447    1.071302 HC    1 MOL     0.0171 ****
 41 HD2     2.141370   -3.406219    2.001259 HC    1 MOL     0.0171 ****
 42 HE      2.824142   -2.788156   -0.908674 HA    1 MOL     0.1313 ****
 43 HF      3.412844   -5.006898   -1.169370 HA    1 MOL     0.1359 ****
 44 HG1     3.379149   -5.262519    1.879359 HC    1 MOL     0.0092 ****
 45 HG2     4.198600   -6.295057    0.748390 HC    1 MOL     0.0092 ****
 46 HH1     2.239643   -7.365371    1.795752 HC    1 MOL     0.0318 ****
 47 HH2     1.185592   -6.145742    1.163596 HC    1 MOL     0.0318 ****
 48 HI1     2.879778   -7.946111   -0.620765 HC    1 MOL     0.0435 ****
 49 HI2     1.670930   -6.808651   -1.147915 HC    1 MOL     0.0435 ****
 50 HK1     1.829491   -9.691668   -1.986061 HC    1 MOL     0.1066 ****
 51 HK2     0.730846   -8.451850   -2.544584 HC    1 MOL     0.1066 ****
 52 HK3     0.102487   -9.978914   -1.912897 HC    1 MOL     0.1066 ****
 53 HK      1.841591   -9.344998    1.329461 H     1 MOL     0.3529 ****
 54 H26     0.420172  -12.471896    2.073313 HC    1 MOL     0.1047 ****
 55 H27     0.427381  -10.961385    2.975752 HC    1 MOL     0.1047 ****
 56 H28     1.920901  -11.548734    2.251449 HC    1 MOL     0.1047 ****
 57 H29    -1.184874   -7.904025   -1.808710 H     1 MOL     0.3615 ****
 58 H30    -3.077763   -6.653014   -1.398759 H1    1 MOL     0.1469 ****
 59 H31    -2.529129   -6.330146    0.242853 H1    1 MOL     0.1469 ****
 60 H32    -3.268557   -7.876896   -0.139032 H1    1 MOL     0.1469 ****
 61 H       4.828120    0.684785   -0.816437 H     1 MOL     0.3570 ****
 62 H34     3.710173    3.434604   -2.706288 HC    1 MOL     0.1060 ****
 63 H35     4.588171    1.902533   -2.825678 HC    1 MOL     0.1060 ****
 64 H36     5.244771    3.226201   -1.873716 HC    1 MOL     0.1060 ****
@<TRIPOS>BOND
    1     1     2 1
    2     1    29 1
    3     1    30 1
    4     1    31 1
    5     2     3 1
    6     2    32 1
    7     3     4 1
    8     3     5 1
    9     5     6 1
   10     5     7 1
   11     5    25 1
   12     6    33 1
   13     6    34 1
   14     6    35 1
   15     7     8 1
   16     7    36 1
   17     7    37 1
   18     8     9 1
   19     8    38 1
   20     8    39 1
   21     9    10 1
   22     9    40 1
   23     9    41 1
   24    10    11 1
   25    10    42 1
   26    11    12 1
   27    11    43 1
   28    12    13 1
   29    12    44 1
   30    12    45 1
   31    13    14 1
   32    13    46 1
   33    13    47 1
   34    14    15 1
   35    14    48 1
   36    14    49 1
   37    15    16 1
   38    15    17 1
   39    15    21 1
   40    16    50 1
   41    16    51 1
   42    16    52 1
   43    17    18 1
   44    17    53 1
   45    18    19 1
   46    18    20 1
   47    19    54 1
   48    19    55 1
   49    19    56 1
   50    21    22 1
   51    21    23 1
   52    23    24 1
   53    23    57 1
   54    24    58 1
   55    24    59 1
   56    24    60 1
   57    25    26 1
   58    25    61 1
   59    26    27 1
   60    26    28 1
   61    27    62 1
   62    27    63 1
   63    27    64 1
@<TRIPOS>SUBSTRUCTURE
      1  MOL              1 ****               0 ****  **** 
