@<TRIPOS>MOLECULE
MOL
   64    63     1     0     1 
SMALL
USER_CHARGES
@<TRIPOS>ATOM
  1 C1      0.000000    0.000000    0.000000 CT    1 MOL    -0.3208 ****
  2 N1      1.448187    0.000000    0.000000 N     1 MOL    -0.5622 ****
  3 C       2.123200    0.475920    1.072365 C     1 MOL     0.8053 ****
  4 O       1.590179    0.696732    2.124447 O     1 MOL    -0.6151 ****
  5 CA      3.650505    0.594143    0.921539 CX    1 MOL     0.0839 ****
  6 C1B     4.198902    1.549248    1.986845 CU    1 MOL    -0.3230 ****
  7 C2B     4.307751   -0.809116    1.023981 CU    1 MOL    -0.0657 ****
  8 CC      4.743546   -1.330801    2.405126 CU    1 MOL    -0.0109 ****
  9 CD      3.667273   -1.983258    3.295392 CU    1 MOL     0.0816 ****
 10 CE      2.960645   -3.151793    2.649264 CM    1 MOL    -0.2354 ****
 11 CF      3.211615   -4.439781    2.819139 CM    1 MOL    -0.2653 ****
 12 CY      4.268242   -5.060783    3.700984 CU    1 MOL     0.1214 ****
 13 CH      3.731938   -5.632969    5.025577 CU    1 MOL    -0.0354 ****
 14 CI      2.705959   -6.754385    4.814136 CU    1 MOL    -0.0984 ****
 15 CJ      2.217953   -7.539197    6.059353 CU    1 MOL     0.1300 ****
 16 C1K     1.161316   -8.550794    5.586445 CU    1 MOL    -0.3561 ****
 17 N2K     3.351383   -8.253222    6.631222 N     1 MOL    -0.7186 ****
 18 C15     3.250878   -8.914769    7.820890 C     1 MOL     0.8537 ****
 19 C16     4.570744   -9.273806    8.464201 CT    1 MOL    -0.3868 ****
 20 O2      2.198178   -9.193904    8.323930 O     1 MOL    -0.6323 ****
 21 C3K     1.704252   -6.526985    7.108287 C     1 MOL     0.7903 ****
 22 OF      2.474574   -5.981053    7.851585 O     1 MOL    -0.6136 ****
 23 N3      0.390724   -6.214214    7.079994 N     1 MOL    -0.5650 ****
 24 C18    -0.165857   -5.311728    8.066878 CT    1 MOL    -0.3231 ****
 25 N       3.997412    1.070275   -0.425452 N     1 MOL    -0.7191 ****
 26 C19     3.587019    2.267163   -0.934086 C     1 MOL     0.8539 ****
 27 C20     4.328148    2.727659   -2.172145 CT    1 MOL    -0.3903 ****
 28 O4      2.697134    2.905425   -0.447397 O     1 MOL    -0.6290 ****
 29 H1     -0.403259    1.006147    0.000000 H1    1 MOL     0.1459 ****
 30 H2     -0.364960   -0.516002    0.875939 H1    1 MOL     0.1459 ****
 31 H3     -0.345658   -0.522086   -0.883346 H1    1 MOL     0.1459 ****
 32 H4      1.904244    0.070913   -0.879357 H     1 MOL     0.3572 ****
 33 HB1     3.932135    1.221760    2.980082 HC    1 MOL     0.0997 ****
 34 HB2     5.280920    1.595925    1.907500 HC    1 MOL     0.0997 ****
 35 HB3     3.792711    2.540594    1.848395 HC    1 MOL     0.0997 ****
 36 HB4     5.200316   -0.760442    0.404159 HC    1 MOL     0.0347 ****
 37 HB5     3.649673   -1.532613    0.553062 HC    1 MOL     0.0347 ****
 38 HC1     5.511988   -2.076531    2.223461 HC    1 MOL     0.0243 ****
 39 HC2     5.222269   -0.536054    2.967775 HC    1 MOL     0.0243 ****
 40 HD1     2.932954   -1.245301    3.591295 HC    1 MOL     0.0171 ****
 41 HD2     4.157199   -2.300882    4.209133 HC    1 MOL     0.0171 ****
 42 HE      2.159050   -2.888921    1.978102 HA    1 MOL     0.1313 ****
 43 HF      2.595987   -5.138108    2.274068 HA    1 MOL     0.1359 ****
 44 HG1     5.038760   -4.335337    3.932274 HC    1 MOL     0.0092 ****
 45 HG2     4.759494   -5.857484    3.143728 HC    1 MOL     0.0092 ****
 46 HH1     4.582328   -5.990438    5.599535 HC    1 MOL     0.0318 ****
 47 HH2     3.293839   -4.833784    5.608845 HC    1 MOL     0.0318 ****
 48 HI1     3.112802   -7.490573    4.124179 HC    1 MOL     0.0435 ****
 49 HI2     1.827708   -6.334749    4.337763 HC    1 MOL     0.0435 ****
 50 HK1     1.640175   -9.274887    4.937627 HC    1 MOL     0.1066 ****
 51 HK2     0.381337   -8.064027    5.010187 HC    1 MOL     0.1066 ****
 52 HK3     0.718793   -9.082248    6.415582 HC    1 MOL     0.1066 ****
 53 HK      4.241691   -7.846615    6.455904 H     1 MOL     0.3529 ****
 54 H26     4.415452  -10.083183    9.161234 HC    1 MOL     0.1047 ****
 55 H27     4.935966   -8.409162    9.010213 HC    1 MOL     0.1047 ****
 56 H28     5.318325   -9.557430    7.731356 HC    1 MOL     0.1047 ****
 57 H29    -0.235417   -6.842908    6.635022 H     1 MOL     0.3615 ****
 58 H30    -1.192606   -5.098527    7.799943 H1    1 MOL     0.1469 ****
 59 H31     0.395125   -4.388763    8.074679 H1    1 MOL     0.1469 ****
 60 H32    -0.137587   -5.738573    9.064254 H1    1 MOL     0.1469 ****
 61 H       4.828120    0.684785   -0.816437 H     1 MOL     0.3570 ****
 62 H34     3.710173    3.434604   -2.706288 HC    1 MOL     0.1060 ****
 63 H35     4.588171    1.902533   -2.825678 HC    1 MOL     0.1060 ****
 64 H36     5.244771    3.226201   -1.873716 HC    1 MOL     0.1060 ****
@<TRIPOS>BOND
    1     1     2 1
    2     1    29 1
    3     1    30 1
    4     1    31 1
    5     2     3 1
    6     2    32 1
    7     3     4 1
    8     3     5 1
    9     5     6 1
   10     5     7 1
   11     5    25 1
   12     6    33 1
   13     6    34 1
   14     6    35 1
   15     7     8 1
   16     7    36 1
   17     7    37 1
   18     8     9 1
   19     8    38 1
   20     8    39 1
   21     9    10 1
   22     9    40 1
   23     9    41 1
   24    10    11 1
   25    10    42 1
   26    11    12 1
   27    11    43 1
   28    12    13 1
   29    12    44 1
   30    12    45 1
   31    13    14 1
   32    13    46 1
   33    13    47 1
   34    14    15 1
   35    14    48 1
   36    14    49 1
   37    15    16 1
   38    15    17 1
   39    15    21 1
   40    16    50 1
   41    16    51 1
   42    16    52 1
   43    17    18 1
   44    17    53 1
   45    18    19 1
   46    18    20 1
   47    19    54 1
   48    19    55 1
   49    19    56 1
   50    21    22 1
   51    21    23 1
   52    23    24 1
   53    23    57 1
   54    24    58 1
   55    24    59 1
   56    24    60 1
   57    25    26 1
   58    25    61 1
   59    26    27 1
   60    26    28 1
   61    27    62 1
   62    27    63 1
   63    27    64 1
@<TRIPOS>SUBSTRUCTURE
      1  MOL              1 ****               0 ****  **** 
