@<TRIPOS>MOLECULE
MOL
   64    63     1     0     1 
SMALL
USER_CHARGES
@<TRIPOS>ATOM
  1 C1      0.000000    0.000000    0.000000 CT    1 MOL    -0.3208 ****
  2 N1      1.448187    0.000000    0.000000 N     1 MOL    -0.5622 ****
  3 C       2.123200    0.475920    1.072365 C     1 MOL     0.8053 ****
  4 O       1.590179    0.696732    2.124447 O     1 MOL    -0.6151 ****
  5 CA      3.650505    0.594143    0.921539 CX    1 MOL     0.0839 ****
  6 C1B     4.198902    1.549248    1.986845 CU    1 MOL    -0.3230 ****
  7 C2B     4.307751   -0.809116    1.023981 CU    1 MOL    -0.0657 ****
  8 CC      4.926519   -1.438019   -0.237462 CU    1 MOL    -0.0109 ****
  9 CD      6.356575   -1.009672   -0.622294 CU    1 MOL     0.0816 ****
 10 CE      7.380860   -1.241041    0.463793 CM    1 MOL    -0.2354 ****
 11 CF      8.220306   -2.257542    0.576985 CM    1 MOL    -0.2653 ****
 12 CY      8.361469   -3.439508   -0.351876 CU    1 MOL     0.1214 ****
 13 CH      9.571746   -3.359542   -1.299716 CU    1 MOL    -0.0354 ****
 14 CI     10.909160   -3.303795   -0.549296 CU    1 MOL    -0.0984 ****
 15 CJ     12.214933   -3.400014   -1.380166 CU    1 MOL     0.1300 ****
 16 C1K    13.396550   -3.257713   -0.407035 CU    1 MOL    -0.3561 ****
 17 N2K    12.264928   -4.709634   -2.015719 N     1 MOL    -0.7186 ****
 18 C15    13.232370   -5.024269   -2.925729 C     1 MOL     0.8537 ****
 19 C16    12.942574   -6.245660   -3.767765 CT    1 MOL    -0.3868 ****
 20 O2     14.239309   -4.384757   -3.053169 O     1 MOL    -0.6323 ****
 21 C3K    12.172127   -2.324817   -2.489600 C     1 MOL     0.7903 ****
 22 OF     11.593217   -2.540333   -3.520301 O     1 MOL    -0.6136 ****
 23 N3     12.714828   -1.120156   -2.209869 N     1 MOL    -0.5650 ****
 24 C18    12.753800   -0.084666   -3.222017 CT    1 MOL    -0.3231 ****
 25 N       3.997412    1.070275   -0.425452 N     1 MOL    -0.7191 ****
 26 C19     3.587019    2.267163   -0.934086 C     1 MOL     0.8539 ****
 27 C20     4.328148    2.727659   -2.172145 CT    1 MOL    -0.3903 ****
 28 O4      2.697134    2.905425   -0.447397 O     1 MOL    -0.6290 ****
 29 H1     -0.403259    1.006147    0.000000 H1    1 MOL     0.1459 ****
 30 H2     -0.364960   -0.516002    0.875939 H1    1 MOL     0.1459 ****
 31 H3     -0.345658   -0.522086   -0.883346 H1    1 MOL     0.1459 ****
 32 H4      1.904244    0.070913   -0.879357 H     1 MOL     0.3572 ****
 33 HB1     3.932135    1.221760    2.980082 HC    1 MOL     0.0997 ****
 34 HB2     5.280920    1.595925    1.907500 HC    1 MOL     0.0997 ****
 35 HB3     3.792711    2.540594    1.848395 HC    1 MOL     0.0997 ****
 36 HB4     3.518994   -1.478072    1.361001 HC    1 MOL     0.0347 ****
 37 HB5     5.046828   -0.785835    1.818653 HC    1 MOL     0.0347 ****
 38 HC1     4.941791   -2.511024   -0.069993 HC    1 MOL     0.0243 ****
 39 HC2     4.275736   -1.275641   -1.090391 HC    1 MOL     0.0243 ****
 40 HD1     6.368177    0.035572   -0.902821 HC    1 MOL     0.0171 ****
 41 HD2     6.626747   -1.562127   -1.515398 HC    1 MOL     0.0171 ****
 42 HE      7.422762   -0.478555    1.224696 HA    1 MOL     0.1313 ****
 43 HF      8.889206   -2.252655    1.423337 HA    1 MOL     0.1359 ****
 44 HG1     7.467361   -3.554460   -0.952561 HC    1 MOL     0.0092 ****
 45 HG2     8.441148   -4.344408    0.249290 HC    1 MOL     0.0092 ****
 46 HH1     9.533679   -4.223088   -1.957905 HC    1 MOL     0.0318 ****
 47 HH2     9.468248   -2.492911   -1.939302 HC    1 MOL     0.0318 ****
 48 HI1    10.947108   -4.109064    0.181207 HC    1 MOL     0.0435 ****
 49 HI2    10.954458   -2.376067    0.008931 HC    1 MOL     0.0435 ****
 50 HK1    13.398089   -4.109041    0.263652 HC    1 MOL     0.1066 ****
 51 HK2    13.299083   -2.364771    0.201682 HC    1 MOL     0.1066 ****
 52 HK3    14.342033   -3.237628   -0.927992 HC    1 MOL     0.1066 ****
 53 HK     11.381516   -5.133364   -2.185266 H     1 MOL     0.3529 ****
 54 H26    13.869858   -6.627988   -4.166550 HC    1 MOL     0.1047 ****
 55 H27    12.302695   -5.951988   -4.594468 HC    1 MOL     0.1047 ****
 56 H28    12.437637   -7.021125   -3.202014 HC    1 MOL     0.1047 ****
 57 H29    13.376227   -1.059466   -1.472186 H     1 MOL     0.3615 ****
 58 H30    13.111593    0.829702   -2.767226 H1    1 MOL     0.1469 ****
 59 H31    11.760551    0.081260   -3.612596 H1    1 MOL     0.1469 ****
 60 H32    13.406322   -0.352160   -4.046891 H1    1 MOL     0.1469 ****
 61 H       4.828120    0.684785   -0.816437 H     1 MOL     0.3570 ****
 62 H34     3.710173    3.434604   -2.706288 HC    1 MOL     0.1060 ****
 63 H35     4.588171    1.902533   -2.825678 HC    1 MOL     0.1060 ****
 64 H36     5.244771    3.226201   -1.873716 HC    1 MOL     0.1060 ****
@<TRIPOS>BOND
    1     1     2 1
    2     1    29 1
    3     1    30 1
    4     1    31 1
    5     2     3 1
    6     2    32 1
    7     3     4 1
    8     3     5 1
    9     5     6 1
   10     5     7 1
   11     5    25 1
   12     6    33 1
   13     6    34 1
   14     6    35 1
   15     7     8 1
   16     7    36 1
   17     7    37 1
   18     8     9 1
   19     8    38 1
   20     8    39 1
   21     9    10 1
   22     9    40 1
   23     9    41 1
   24    10    11 1
   25    10    42 1
   26    11    12 1
   27    11    43 1
   28    12    13 1
   29    12    44 1
   30    12    45 1
   31    13    14 1
   32    13    46 1
   33    13    47 1
   34    14    15 1
   35    14    48 1
   36    14    49 1
   37    15    16 1
   38    15    17 1
   39    15    21 1
   40    16    50 1
   41    16    51 1
   42    16    52 1
   43    17    18 1
   44    17    53 1
   45    18    19 1
   46    18    20 1
   47    19    54 1
   48    19    55 1
   49    19    56 1
   50    21    22 1
   51    21    23 1
   52    23    24 1
   53    23    57 1
   54    24    58 1
   55    24    59 1
   56    24    60 1
   57    25    26 1
   58    25    61 1
   59    26    27 1
   60    26    28 1
   61    27    62 1
   62    27    63 1
   63    27    64 1
@<TRIPOS>SUBSTRUCTURE
      1  MOL              1 ****               0 ****  **** 
