@<TRIPOS>MOLECULE
MOL
   64    63     1     0     1 
SMALL
USER_CHARGES
@<TRIPOS>ATOM
  1 C1      0.000000    0.000000    0.000000 CT    1 MOL    -0.3208 ****
  2 N1      1.448187    0.000000    0.000000 N     1 MOL    -0.5622 ****
  3 C       2.123200    0.475920    1.072365 C     1 MOL     0.8053 ****
  4 O       1.590179    0.696732    2.124447 O     1 MOL    -0.6151 ****
  5 CA      3.650505    0.594143    0.921539 CX    1 MOL     0.0839 ****
  6 C1B     4.198902    1.549248    1.986845 CU    1 MOL    -0.3230 ****
  7 C2B     4.307751   -0.809116    1.023981 CU    1 MOL    -0.0657 ****
  8 CC      4.133566   -1.622781    2.319066 CU    1 MOL    -0.0109 ****
  9 CD      3.513917   -0.906802    3.535637 CU    1 MOL     0.0816 ****
 10 CE      2.151013   -0.311577    3.270159 CM    1 MOL    -0.2354 ****
 11 CF      0.971819   -0.832136    3.568951 CM    1 MOL    -0.2653 ****
 12 CY      0.696477   -2.151807    4.248957 CU    1 MOL     0.1214 ****
 13 CH      0.318606   -2.031525    5.736341 CU    1 MOL    -0.0354 ****
 14 CI     -0.961688   -1.215075    5.958093 CU    1 MOL    -0.0984 ****
 15 CJ     -1.554002   -1.164167    7.390300 CU    1 MOL     0.1300 ****
 16 C1K    -2.782928   -0.241259    7.352450 CU    1 MOL    -0.3561 ****
 17 N2K    -1.968206   -2.508236    7.769043 N     1 MOL    -0.7186 ****
 18 C15    -2.394414   -2.793298    9.034011 C     1 MOL     0.8537 ****
 19 C16    -2.422923   -4.264251    9.380841 CT    1 MOL    -0.3868 ****
 20 O2     -2.723453   -1.945905    9.816826 O     1 MOL    -0.6323 ****
 21 C3K    -0.445216   -0.706591    8.364950 C     1 MOL     0.7903 ****
 22 OF      0.342067   -1.501488    8.803417 O     1 MOL    -0.6136 ****
 23 N3     -0.341597    0.617058    8.612332 N     1 MOL    -0.5650 ****
 24 C18     0.642415    1.108337    9.554970 CT    1 MOL    -0.3231 ****
 25 N       3.997412    1.070275   -0.425452 N     1 MOL    -0.7191 ****
 26 C19     3.587019    2.267163   -0.934086 C     1 MOL     0.8539 ****
 27 C20     4.328148    2.727659   -2.172145 CT    1 MOL    -0.3903 ****
 28 O4      2.697134    2.905425   -0.447397 O     1 MOL    -0.6290 ****
 29 H1     -0.403259    1.006147    0.000000 H1    1 MOL     0.1459 ****
 30 H2     -0.364960   -0.516002    0.875939 H1    1 MOL     0.1459 ****
 31 H3     -0.345658   -0.522086   -0.883346 H1    1 MOL     0.1459 ****
 32 H4      1.904244    0.070913   -0.879357 H     1 MOL     0.3572 ****
 33 HB1     3.932135    1.221760    2.980082 HC    1 MOL     0.0997 ****
 34 HB2     5.280920    1.595925    1.907500 HC    1 MOL     0.0997 ****
 35 HB3     3.792711    2.540594    1.848395 HC    1 MOL     0.0997 ****
 36 HB4     5.374584   -0.643250    0.891407 HC    1 MOL     0.0347 ****
 37 HB5     3.984642   -1.403324    0.174983 HC    1 MOL     0.0347 ****
 38 HC1     3.488779   -2.460847    2.071048 HC    1 MOL     0.0243 ****
 39 HC2     5.084079   -2.052354    2.618006 HC    1 MOL     0.0243 ****
 40 HD1     4.178324   -0.127505    3.885812 HC    1 MOL     0.0171 ****
 41 HD2     3.455181   -1.633058    4.338716 HC    1 MOL     0.0171 ****
 42 HE      2.157509    0.650666    2.784194 HA    1 MOL     0.1313 ****
 43 HF      0.097978   -0.256957    3.305640 HA    1 MOL     0.1359 ****
 44 HG1     1.558791   -2.802657    4.169739 HC    1 MOL     0.0092 ****
 45 HG2    -0.111439   -2.653043    3.717328 HC    1 MOL     0.0092 ****
 46 HH1     0.208764   -3.037461    6.131815 HC    1 MOL     0.0318 ****
 47 HH2     1.141827   -1.586345    6.279435 HC    1 MOL     0.0318 ****
 48 HI1    -1.749082   -1.595417    5.310881 HC    1 MOL     0.0435 ****
 49 HI2    -0.776782   -0.191713    5.653314 HC    1 MOL     0.0435 ****
 50 HK1    -3.539979   -0.697171    6.725075 HC    1 MOL     0.1066 ****
 51 HK2    -2.537715    0.722163    6.917629 HC    1 MOL     0.1066 ****
 52 HK3    -3.203327   -0.096395    8.336329 HC    1 MOL     0.1066 ****
 53 HK     -1.476116   -3.246545    7.320200 H     1 MOL     0.3529 ****
 54 H26    -3.095967   -4.418656   10.210439 HC    1 MOL     0.1047 ****
 55 H27    -1.424625   -4.568285    9.680988 HC    1 MOL     0.1047 ****
 56 H28    -2.729297   -4.876228    8.539412 HC    1 MOL     0.1047 ****
 57 H29    -1.130082    1.193913    8.436717 H     1 MOL     0.3615 ****
 58 H30     0.645683    2.189819    9.518820 H1    1 MOL     0.1469 ****
 59 H31     1.622051    0.743720    9.282951 H1    1 MOL     0.1469 ****
 60 H32     0.425664    0.785700   10.568221 H1    1 MOL     0.1469 ****
 61 H       4.828120    0.684785   -0.816437 H     1 MOL     0.3570 ****
 62 H34     3.710173    3.434604   -2.706288 HC    1 MOL     0.1060 ****
 63 H35     4.588171    1.902533   -2.825678 HC    1 MOL     0.1060 ****
 64 H36     5.244771    3.226201   -1.873716 HC    1 MOL     0.1060 ****
@<TRIPOS>BOND
    1     1     2 1
    2     1    29 1
    3     1    30 1
    4     1    31 1
    5     2     3 1
    6     2    32 1
    7     3     4 1
    8     3     5 1
    9     5     6 1
   10     5     7 1
   11     5    25 1
   12     6    33 1
   13     6    34 1
   14     6    35 1
   15     7     8 1
   16     7    36 1
   17     7    37 1
   18     8     9 1
   19     8    38 1
   20     8    39 1
   21     9    10 1
   22     9    40 1
   23     9    41 1
   24    10    11 1
   25    10    42 1
   26    11    12 1
   27    11    43 1
   28    12    13 1
   29    12    44 1
   30    12    45 1
   31    13    14 1
   32    13    46 1
   33    13    47 1
   34    14    15 1
   35    14    48 1
   36    14    49 1
   37    15    16 1
   38    15    17 1
   39    15    21 1
   40    16    50 1
   41    16    51 1
   42    16    52 1
   43    17    18 1
   44    17    53 1
   45    18    19 1
   46    18    20 1
   47    19    54 1
   48    19    55 1
   49    19    56 1
   50    21    22 1
   51    21    23 1
   52    23    24 1
   53    23    57 1
   54    24    58 1
   55    24    59 1
   56    24    60 1
   57    25    26 1
   58    25    61 1
   59    26    27 1
   60    26    28 1
   61    27    62 1
   62    27    63 1
   63    27    64 1
@<TRIPOS>SUBSTRUCTURE
      1  MOL              1 ****               0 ****  **** 
