@<TRIPOS>MOLECULE
MOL
   64    63     1     0     1 
SMALL
USER_CHARGES
@<TRIPOS>ATOM
  1 C1      0.000000    0.000000    0.000000 CT    1 MOL    -0.3208 ****
  2 N1      1.448187    0.000000    0.000000 N     1 MOL    -0.5622 ****
  3 C       2.123200    0.475920    1.072365 C     1 MOL     0.8053 ****
  4 O       1.590179    0.696732    2.124447 O     1 MOL    -0.6151 ****
  5 CA      3.650505    0.594143    0.921539 CX    1 MOL     0.0839 ****
  6 C1B     4.198902    1.549248    1.986845 CU    1 MOL    -0.3230 ****
  7 C2B     4.307751   -0.809116    1.023981 CU    1 MOL    -0.0657 ****
  8 CC      4.133566   -1.622781    2.319066 CU    1 MOL    -0.0109 ****
  9 CD      5.298049   -1.617150    3.329305 CU    1 MOL     0.0816 ****
 10 CE      5.701919   -0.237641    3.794195 CM    1 MOL    -0.2354 ****
 11 CF      5.347223    0.371782    4.913816 CM    1 MOL    -0.2653 ****
 12 CY      4.449210   -0.161080    6.004405 CU    1 MOL     0.1214 ****
 13 CH      5.197356   -0.661903    7.253012 CU    1 MOL    -0.0354 ****
 14 CI      6.012787    0.443052    7.937892 CU    1 MOL    -0.0984 ****
 15 CJ      6.671761    0.121215    9.304208 CU    1 MOL     0.1300 ****
 16 C1K     7.471277    1.360588    9.738004 CU    1 MOL    -0.3561 ****
 17 N2K     5.619426   -0.141884   10.276268 N     1 MOL    -0.7186 ****
 18 C15     5.905298   -0.594106   11.531987 C     1 MOL     0.8537 ****
 19 C16     4.729732   -1.176272   12.282940 CT    1 MOL    -0.3868 ****
 20 O2      7.003944   -0.536901   12.010367 O     1 MOL    -0.6323 ****
 21 C3K     7.520679   -1.161170    9.150738 C     1 MOL     0.7903 ****
 22 OF      7.004480   -2.243117    9.233545 O     1 MOL    -0.6136 ****
 23 N3      8.821985   -1.010338    8.822358 N     1 MOL    -0.5650 ****
 24 C18     9.685802   -2.167938    8.712885 CT    1 MOL    -0.3231 ****
 25 N       3.997412    1.070275   -0.425452 N     1 MOL    -0.7191 ****
 26 C19     3.587019    2.267163   -0.934086 C     1 MOL     0.8539 ****
 27 C20     4.328148    2.727659   -2.172145 CT    1 MOL    -0.3903 ****
 28 O4      2.697134    2.905425   -0.447397 O     1 MOL    -0.6290 ****
 29 H1     -0.403259    1.006147    0.000000 H1    1 MOL     0.1459 ****
 30 H2     -0.364960   -0.516002    0.875939 H1    1 MOL     0.1459 ****
 31 H3     -0.345658   -0.522086   -0.883346 H1    1 MOL     0.1459 ****
 32 H4      1.904244    0.070913   -0.879357 H     1 MOL     0.3572 ****
 33 HB1     3.932135    1.221760    2.980082 HC    1 MOL     0.0997 ****
 34 HB2     5.280920    1.595925    1.907500 HC    1 MOL     0.0997 ****
 35 HB3     3.792711    2.540594    1.848395 HC    1 MOL     0.0997 ****
 36 HB4     5.374584   -0.643250    0.891407 HC    1 MOL     0.0347 ****
 37 HB5     3.984642   -1.403324    0.174983 HC    1 MOL     0.0347 ****
 38 HC1     3.262625   -1.214668    2.823571 HC    1 MOL     0.0243 ****
 39 HC2     3.888190   -2.652391    2.080177 HC    1 MOL     0.0243 ****
 40 HD1     6.160555   -2.114004    2.904354 HC    1 MOL     0.0171 ****
 41 HD2     4.990885   -2.222153    4.175152 HC    1 MOL     0.0171 ****
 42 HE      6.358496    0.297217    3.127151 HA    1 MOL     0.1313 ****
 43 HF      5.740229    1.362277    5.081823 HA    1 MOL     0.1359 ****
 44 HG1     3.839423   -0.972629    5.626232 HC    1 MOL     0.0092 ****
 45 HG2     3.756796    0.626837    6.298250 HC    1 MOL     0.0092 ****
 46 HH1     4.460866   -1.077724    7.934957 HC    1 MOL     0.0318 ****
 47 HH2     5.844421   -1.483839    6.976320 HC    1 MOL     0.0318 ****
 48 HI1     5.379486    1.313187    8.097044 HC    1 MOL     0.0435 ****
 49 HI2     6.805246    0.754485    7.267542 HC    1 MOL     0.0435 ****
 50 HK1     6.778864    2.174829    9.917323 HC    1 MOL     0.1066 ****
 51 HK2     8.154138    1.680688    8.957864 HC    1 MOL     0.1066 ****
 52 HK3     8.022824    1.180749   10.648604 HC    1 MOL     0.1066 ****
 53 HK      4.765902   -0.482341    9.896403 H     1 MOL     0.3529 ****
 54 H26     4.941504   -1.156216   13.341152 HC    1 MOL     0.1047 ****
 55 H27     4.598617   -2.208825   11.973477 HC    1 MOL     0.1047 ****
 56 H28     3.809689   -0.638429   12.081374 HC    1 MOL     0.1047 ****
 57 H29     9.255599   -0.135001    8.998639 H     1 MOL     0.3615 ****
 58 H30    10.644725   -1.848171    8.326703 H1    1 MOL     0.1469 ****
 59 H31     9.251893   -2.883650    8.030166 H1    1 MOL     0.1469 ****
 60 H32     9.831409   -2.653929    9.672242 H1    1 MOL     0.1469 ****
 61 H       4.828120    0.684785   -0.816437 H     1 MOL     0.3570 ****
 62 H34     3.710173    3.434604   -2.706288 HC    1 MOL     0.1060 ****
 63 H35     4.588171    1.902533   -2.825678 HC    1 MOL     0.1060 ****
 64 H36     5.244771    3.226201   -1.873716 HC    1 MOL     0.1060 ****
@<TRIPOS>BOND
    1     1     2 1
    2     1    29 1
    3     1    30 1
    4     1    31 1
    5     2     3 1
    6     2    32 1
    7     3     4 1
    8     3     5 1
    9     5     6 1
   10     5     7 1
   11     5    25 1
   12     6    33 1
   13     6    34 1
   14     6    35 1
   15     7     8 1
   16     7    36 1
   17     7    37 1
   18     8     9 1
   19     8    38 1
   20     8    39 1
   21     9    10 1
   22     9    40 1
   23     9    41 1
   24    10    11 1
   25    10    42 1
   26    11    12 1
   27    11    43 1
   28    12    13 1
   29    12    44 1
   30    12    45 1
   31    13    14 1
   32    13    46 1
   33    13    47 1
   34    14    15 1
   35    14    48 1
   36    14    49 1
   37    15    16 1
   38    15    17 1
   39    15    21 1
   40    16    50 1
   41    16    51 1
   42    16    52 1
   43    17    18 1
   44    17    53 1
   45    18    19 1
   46    18    20 1
   47    19    54 1
   48    19    55 1
   49    19    56 1
   50    21    22 1
   51    21    23 1
   52    23    24 1
   53    23    57 1
   54    24    58 1
   55    24    59 1
   56    24    60 1
   57    25    26 1
   58    25    61 1
   59    26    27 1
   60    26    28 1
   61    27    62 1
   62    27    63 1
   63    27    64 1
@<TRIPOS>SUBSTRUCTURE
      1  MOL              1 ****               0 ****  **** 
