@<TRIPOS>MOLECULE
MOL
   64    63     1     0     1 
SMALL
USER_CHARGES
@<TRIPOS>ATOM
  1 C1      0.000000    0.000000    0.000000 CT    1 MOL    -0.3208 ****
  2 N1      1.448187    0.000000    0.000000 N     1 MOL    -0.5622 ****
  3 C       2.123200    0.475920    1.072365 C     1 MOL     0.8053 ****
  4 O       1.590179    0.696732    2.124447 O     1 MOL    -0.6151 ****
  5 CA      3.650505    0.594143    0.921539 CX    1 MOL     0.0839 ****
  6 C1B     4.198902    1.549248    1.986845 CU    1 MOL    -0.3230 ****
  7 C2B     4.307751   -0.809116    1.023981 CU    1 MOL    -0.0657 ****
  8 CC      4.133566   -1.622781    2.319066 CU    1 MOL    -0.0109 ****
  9 CD      3.664794   -3.085478    2.187129 CU    1 MOL     0.0816 ****
 10 CE      4.553837   -3.939567    1.313967 CM    1 MOL    -0.2354 ****
 11 CF      5.505262   -4.772816    1.702866 CM    1 MOL    -0.2653 ****
 12 CY      5.938861   -5.075602    3.117103 CU    1 MOL     0.1214 ****
 13 CH      5.412024   -6.412591    3.668888 CU    1 MOL    -0.0354 ****
 14 CI      5.895929   -7.620801    2.855883 CU    1 MOL    -0.0984 ****
 15 CJ      5.586728   -9.038176    3.403687 CU    1 MOL     0.1300 ****
 16 C1K     6.117965  -10.057209    2.382507 CU    1 MOL    -0.3561 ****
 17 N2K     6.287184   -9.209387    4.669222 N     1 MOL    -0.7186 ****
 18 C15     6.085632  -10.308615    5.452888 C     1 MOL     0.8537 ****
 19 C16     6.570774  -10.173173    6.878054 CT    1 MOL    -0.3868 ****
 20 O2      5.563923  -11.310183    5.048139 O     1 MOL    -0.6323 ****
 21 C3K     4.068294   -9.140746    3.673060 C     1 MOL     0.7903 ****
 22 OF      3.606217   -8.727583    4.702482 O     1 MOL    -0.6136 ****
 23 N3      3.289623   -9.610922    2.674768 N     1 MOL    -0.5650 ****
 24 C18     1.865542   -9.780523    2.878313 CT    1 MOL    -0.3231 ****
 25 N       3.997412    1.070275   -0.425452 N     1 MOL    -0.7191 ****
 26 C19     3.587019    2.267163   -0.934086 C     1 MOL     0.8539 ****
 27 C20     4.328148    2.727659   -2.172145 CT    1 MOL    -0.3903 ****
 28 O4      2.697134    2.905425   -0.447397 O     1 MOL    -0.6290 ****
 29 H1     -0.403259    1.006147    0.000000 H1    1 MOL     0.1459 ****
 30 H2     -0.364960   -0.516002    0.875939 H1    1 MOL     0.1459 ****
 31 H3     -0.345658   -0.522086   -0.883346 H1    1 MOL     0.1459 ****
 32 H4      1.904244    0.070913   -0.879357 H     1 MOL     0.3572 ****
 33 HB1     3.932135    1.221760    2.980082 HC    1 MOL     0.0997 ****
 34 HB2     5.280920    1.595925    1.907500 HC    1 MOL     0.0997 ****
 35 HB3     3.792711    2.540594    1.848395 HC    1 MOL     0.0997 ****
 36 HB4     5.374584   -0.643250    0.891407 HC    1 MOL     0.0347 ****
 37 HB5     3.984642   -1.403324    0.174983 HC    1 MOL     0.0347 ****
 38 HC1     5.103577   -1.634354    2.807495 HC    1 MOL     0.0243 ****
 39 HC2     3.462028   -1.104273    2.995498 HC    1 MOL     0.0243 ****
 40 HD1     2.653886   -3.117998    1.801937 HC    1 MOL     0.0171 ****
 41 HD2     3.616626   -3.497733    3.188907 HC    1 MOL     0.0171 ****
 42 HE      4.377094   -3.851398    0.254201 HA    1 MOL     0.1313 ****
 43 HF      6.038342   -5.306848    0.931895 HA    1 MOL     0.1359 ****
 44 HG1     5.621245   -4.284298    3.785252 HC    1 MOL     0.0092 ****
 45 HG2     7.027614   -5.082348    3.151244 HC    1 MOL     0.0092 ****
 46 HH1     5.730570   -6.491167    4.704614 HC    1 MOL     0.0318 ****
 47 HH2     4.330463   -6.388839    3.691024 HC    1 MOL     0.0318 ****
 48 HI1     6.975521   -7.564875    2.733870 HC    1 MOL     0.0435 ****
 49 HI2     5.467932   -7.563086    1.861982 HC    1 MOL     0.0435 ****
 50 HK1     7.197808   -9.975202    2.340147 HC    1 MOL     0.1066 ****
 51 HK2     5.737264   -9.851498    1.387454 HC    1 MOL     0.1066 ****
 52 HK3     5.867769  -11.069585    2.662216 HC    1 MOL     0.1066 ****
 53 HK      6.470589   -8.370155    5.169986 H     1 MOL     0.3529 ****
 54 H26     6.716989  -11.157327    7.296532 HC    1 MOL     0.1047 ****
 55 H27     5.808469   -9.658863    7.455549 HC    1 MOL     0.1047 ****
 56 H28     7.492196   -9.604756    6.943369 HC    1 MOL     0.1047 ****
 57 H29     3.713978  -10.152730    1.959452 H     1 MOL     0.3615 ****
 58 H30     1.410858  -10.047495    1.933374 H1    1 MOL     0.1469 ****
 59 H31     1.434068   -8.854023    3.227676 H1    1 MOL     0.1469 ****
 60 H32     1.652467  -10.554734    3.608347 H1    1 MOL     0.1469 ****
 61 H       4.828120    0.684785   -0.816437 H     1 MOL     0.3570 ****
 62 H34     3.710173    3.434604   -2.706288 HC    1 MOL     0.1060 ****
 63 H35     4.588171    1.902533   -2.825678 HC    1 MOL     0.1060 ****
 64 H36     5.244771    3.226201   -1.873716 HC    1 MOL     0.1060 ****
@<TRIPOS>BOND
    1     1     2 1
    2     1    29 1
    3     1    30 1
    4     1    31 1
    5     2     3 1
    6     2    32 1
    7     3     4 1
    8     3     5 1
    9     5     6 1
   10     5     7 1
   11     5    25 1
   12     6    33 1
   13     6    34 1
   14     6    35 1
   15     7     8 1
   16     7    36 1
   17     7    37 1
   18     8     9 1
   19     8    38 1
   20     8    39 1
   21     9    10 1
   22     9    40 1
   23     9    41 1
   24    10    11 1
   25    10    42 1
   26    11    12 1
   27    11    43 1
   28    12    13 1
   29    12    44 1
   30    12    45 1
   31    13    14 1
   32    13    46 1
   33    13    47 1
   34    14    15 1
   35    14    48 1
   36    14    49 1
   37    15    16 1
   38    15    17 1
   39    15    21 1
   40    16    50 1
   41    16    51 1
   42    16    52 1
   43    17    18 1
   44    17    53 1
   45    18    19 1
   46    18    20 1
   47    19    54 1
   48    19    55 1
   49    19    56 1
   50    21    22 1
   51    21    23 1
   52    23    24 1
   53    23    57 1
   54    24    58 1
   55    24    59 1
   56    24    60 1
   57    25    26 1
   58    25    61 1
   59    26    27 1
   60    26    28 1
   61    27    62 1
   62    27    63 1
   63    27    64 1
@<TRIPOS>SUBSTRUCTURE
      1  MOL              1 ****               0 ****  **** 
