@<TRIPOS>MOLECULE
MOL
   64    63     1     0     1 
SMALL
USER_CHARGES
@<TRIPOS>ATOM
  1 C1      0.000000    0.000000    0.000000 CT    1 MOL    -0.3208 ****
  2 N1      1.448187    0.000000    0.000000 N     1 MOL    -0.5622 ****
  3 C       2.123200    0.475920    1.072365 C     1 MOL     0.8053 ****
  4 O       1.590179    0.696732    2.124447 O     1 MOL    -0.6151 ****
  5 CA      3.650505    0.594143    0.921539 CX    1 MOL     0.0839 ****
  6 C1B     4.198902    1.549248    1.986845 CU    1 MOL    -0.3230 ****
  7 C2B     4.307751   -0.809116    1.023981 CU    1 MOL    -0.0657 ****
  8 CC      4.133566   -1.622781    2.319066 CU    1 MOL    -0.0109 ****
  9 CD      4.591365   -3.094814    2.305884 CU    1 MOL     0.0816 ****
 10 CE      6.041115   -3.284355    1.925651 CM    1 MOL    -0.2354 ****
 11 CF      7.070954   -3.461470    2.737328 CM    1 MOL    -0.2653 ****
 12 CY      7.051915   -3.516931    4.246074 CU    1 MOL     0.1214 ****
 13 CH      7.151308   -4.938067    4.829218 CU    1 MOL    -0.0354 ****
 14 CI      8.454261   -5.648673    4.439003 CU    1 MOL    -0.0984 ****
 15 CJ      8.764812   -7.015778    5.101745 CU    1 MOL     0.1300 ****
 16 C1K    10.079874   -7.536325    4.499172 CU    1 MOL    -0.3561 ****
 17 N2K     8.935519   -6.809145    6.533419 N     1 MOL    -0.7186 ****
 18 C15     9.075870   -7.859401    7.393838 C     1 MOL     0.8537 ****
 19 C16     8.861658   -7.522263    8.851663 CT    1 MOL    -0.3868 ****
 20 O2      9.348806   -8.968877    7.028170 O     1 MOL    -0.6323 ****
 21 C3K     7.553587   -7.951883    4.888750 C     1 MOL     0.7903 ****
 22 OF      6.607896   -7.896952    5.628060 O     1 MOL    -0.6136 ****
 23 N3      7.563858   -8.743530    3.794597 N     1 MOL    -0.5650 ****
 24 C18     6.484338   -9.680959    3.562079 CT    1 MOL    -0.3231 ****
 25 N       3.997412    1.070275   -0.425452 N     1 MOL    -0.7191 ****
 26 C19     3.587019    2.267163   -0.934086 C     1 MOL     0.8539 ****
 27 C20     4.328148    2.727659   -2.172145 CT    1 MOL    -0.3903 ****
 28 O4      2.697134    2.905425   -0.447397 O     1 MOL    -0.6290 ****
 29 H1     -0.403259    1.006147    0.000000 H1    1 MOL     0.1459 ****
 30 H2     -0.364960   -0.516002    0.875939 H1    1 MOL     0.1459 ****
 31 H3     -0.345658   -0.522086   -0.883346 H1    1 MOL     0.1459 ****
 32 H4      1.904244    0.070913   -0.879357 H     1 MOL     0.3572 ****
 33 HB1     3.932135    1.221760    2.980082 HC    1 MOL     0.0997 ****
 34 HB2     5.280920    1.595925    1.907500 HC    1 MOL     0.0997 ****
 35 HB3     3.792711    2.540594    1.848395 HC    1 MOL     0.0997 ****
 36 HB4     5.374584   -0.643250    0.891407 HC    1 MOL     0.0347 ****
 37 HB5     3.984642   -1.403324    0.174983 HC    1 MOL     0.0347 ****
 38 HC1     4.708812   -1.109552    3.084119 HC    1 MOL     0.0243 ****
 39 HC2     3.099090   -1.585419    2.644394 HC    1 MOL     0.0243 ****
 40 HD1     3.970520   -3.670623    1.631821 HC    1 MOL     0.0171 ****
 41 HD2     4.408819   -3.495651    3.296762 HC    1 MOL     0.0171 ****
 42 HE      6.242415   -3.275928    0.866632 HA    1 MOL     0.1313 ****
 43 HF      8.041355   -3.585593    2.282710 HA    1 MOL     0.1359 ****
 44 HG1     6.148910   -3.056157    4.627828 HC    1 MOL     0.0092 ****
 45 HG2     7.880403   -2.919592    4.624740 HC    1 MOL     0.0092 ****
 46 HH1     7.062710   -4.859097    5.909166 HC    1 MOL     0.0318 ****
 47 HH2     6.299018   -5.519040    4.502259 HC    1 MOL     0.0318 ****
 48 HI1     9.299221   -4.999422    4.658202 HC    1 MOL     0.0435 ****
 49 HI2     8.454534   -5.807017    3.366959 HC    1 MOL     0.0435 ****
 50 HK1    10.882451   -6.867743    4.788049 HC    1 MOL     0.1066 ****
 51 HK2    10.038974   -7.545350    3.414908 HC    1 MOL     0.1066 ****
 52 HK3    10.319512   -8.525582    4.859287 HC    1 MOL     0.1066 ****
 53 HK      8.453171   -6.025327    6.909827 H     1 MOL     0.3529 ****
 54 H26     9.341045   -8.272481    9.461927 HC    1 MOL     0.1047 ****
 55 H27     7.795408   -7.535650    9.056741 HC    1 MOL     0.1047 ****
 56 H28     9.247184   -6.540536    9.104573 HC    1 MOL     0.1047 ****
 57 H29     8.434592   -8.936178    3.358684 H     1 MOL     0.3615 ****
 58 H30     6.617405  -10.125589    2.584573 H1    1 MOL     0.1469 ****
 59 H31     5.537963   -9.160968    3.586792 H1    1 MOL     0.1469 ****
 60 H32     6.464027  -10.465708    4.311419 H1    1 MOL     0.1469 ****
 61 H       4.828120    0.684785   -0.816437 H     1 MOL     0.3570 ****
 62 H34     3.710173    3.434604   -2.706288 HC    1 MOL     0.1060 ****
 63 H35     4.588171    1.902533   -2.825678 HC    1 MOL     0.1060 ****
 64 H36     5.244771    3.226201   -1.873716 HC    1 MOL     0.1060 ****
@<TRIPOS>BOND
    1     1     2 1
    2     1    29 1
    3     1    30 1
    4     1    31 1
    5     2     3 1
    6     2    32 1
    7     3     4 1
    8     3     5 1
    9     5     6 1
   10     5     7 1
   11     5    25 1
   12     6    33 1
   13     6    34 1
   14     6    35 1
   15     7     8 1
   16     7    36 1
   17     7    37 1
   18     8     9 1
   19     8    38 1
   20     8    39 1
   21     9    10 1
   22     9    40 1
   23     9    41 1
   24    10    11 1
   25    10    42 1
   26    11    12 1
   27    11    43 1
   28    12    13 1
   29    12    44 1
   30    12    45 1
   31    13    14 1
   32    13    46 1
   33    13    47 1
   34    14    15 1
   35    14    48 1
   36    14    49 1
   37    15    16 1
   38    15    17 1
   39    15    21 1
   40    16    50 1
   41    16    51 1
   42    16    52 1
   43    17    18 1
   44    17    53 1
   45    18    19 1
   46    18    20 1
   47    19    54 1
   48    19    55 1
   49    19    56 1
   50    21    22 1
   51    21    23 1
   52    23    24 1
   53    23    57 1
   54    24    58 1
   55    24    59 1
   56    24    60 1
   57    25    26 1
   58    25    61 1
   59    26    27 1
   60    26    28 1
   61    27    62 1
   62    27    63 1
   63    27    64 1
@<TRIPOS>SUBSTRUCTURE
      1  MOL              1 ****               0 ****  **** 
