@<TRIPOS>MOLECULE
MOL
   64    63     1     0     1 
SMALL
USER_CHARGES
@<TRIPOS>ATOM
  1 C1      0.000000    0.000000    0.000000 CT    1 MOL    -0.3208 ****
  2 N1      1.448187    0.000000    0.000000 N     1 MOL    -0.5622 ****
  3 C       2.123200    0.475920    1.072365 C     1 MOL     0.8053 ****
  4 O       1.590179    0.696732    2.124447 O     1 MOL    -0.6151 ****
  5 CA      3.650505    0.594143    0.921539 CX    1 MOL     0.0839 ****
  6 C1B     4.198902    1.549248    1.986845 CU    1 MOL    -0.3230 ****
  7 C2B     4.307751   -0.809116    1.023981 CU    1 MOL    -0.0657 ****
  8 CC      4.133566   -1.622781    2.319066 CU    1 MOL    -0.0109 ****
  9 CD      5.038688   -1.266115    3.514967 CU    1 MOL     0.0816 ****
 10 CE      4.939828    0.176635    3.951975 CM    1 MOL    -0.2354 ****
 11 CF      4.224252    0.669537    4.949851 CM    1 MOL    -0.2653 ****
 12 CY      3.327688   -0.088848    5.898945 CU    1 MOL     0.1214 ****
 13 CH      3.940702   -0.335095    7.289320 CU    1 MOL    -0.0354 ****
 14 CI      4.265879    0.967557    8.032470 CU    1 MOL    -0.0984 ****
 15 CJ      4.722217    0.867936    9.511144 CU    1 MOL     0.1300 ****
 16 C1K     5.041066    2.291544    9.996042 CU    1 MOL    -0.3561 ****
 17 N2K     3.625976    0.321220   10.299111 N     1 MOL    -0.7186 ****
 18 C15     3.789102   -0.013138   11.612370 C     1 MOL     0.8537 ****
 19 C16     2.708868   -0.903586   12.182461 CT    1 MOL    -0.3868 ****
 20 O2      4.716856    0.367358   12.270882 O     1 MOL    -0.6323 ****
 21 C3K     5.913595   -0.113208    9.592995 C     1 MOL     0.7903 ****
 22 OF      5.720106   -1.297548    9.654875 O     1 MOL    -0.6136 ****
 23 N3      7.155821    0.406307    9.488302 N     1 MOL    -0.5650 ****
 24 C18     8.317548   -0.450612    9.607807 CT    1 MOL    -0.3231 ****
 25 N       3.997412    1.070275   -0.425452 N     1 MOL    -0.7191 ****
 26 C19     3.587019    2.267163   -0.934086 C     1 MOL     0.8539 ****
 27 C20     4.328148    2.727659   -2.172145 CT    1 MOL    -0.3903 ****
 28 O4      2.697134    2.905425   -0.447397 O     1 MOL    -0.6290 ****
 29 H1     -0.403259    1.006147    0.000000 H1    1 MOL     0.1459 ****
 30 H2     -0.364960   -0.516002    0.875939 H1    1 MOL     0.1459 ****
 31 H3     -0.345658   -0.522086   -0.883346 H1    1 MOL     0.1459 ****
 32 H4      1.904244    0.070913   -0.879357 H     1 MOL     0.3572 ****
 33 HB1     3.932135    1.221760    2.980082 HC    1 MOL     0.0997 ****
 34 HB2     5.280920    1.595925    1.907500 HC    1 MOL     0.0997 ****
 35 HB3     3.792711    2.540594    1.848395 HC    1 MOL     0.0997 ****
 36 HB4     5.374584   -0.643250    0.891407 HC    1 MOL     0.0347 ****
 37 HB5     3.984642   -1.403324    0.174983 HC    1 MOL     0.0347 ****
 38 HC1     3.104414   -1.480160    2.635490 HC    1 MOL     0.0243 ****
 39 HC2     4.239910   -2.681975    2.108895 HC    1 MOL     0.0243 ****
 40 HD1     6.070283   -1.495133    3.281033 HC    1 MOL     0.0171 ****
 41 HD2     4.763945   -1.924268    4.331782 HC    1 MOL     0.0171 ****
 42 HE      5.529761    0.871619    3.376570 HA    1 MOL     0.1313 ****
 43 HF      4.281085    1.733487    5.118794 HA    1 MOL     0.1359 ****
 44 HG1     3.055337   -1.047285    5.473870 HC    1 MOL     0.0092 ****
 45 HG2     2.397811    0.466583    6.014787 HC    1 MOL     0.0092 ****
 46 HH1     3.239011   -0.939320    7.857577 HC    1 MOL     0.0318 ****
 47 HH2     4.834397   -0.936074    7.184620 HC    1 MOL     0.0318 ****
 48 HI1     3.393356    1.617254    8.020953 HC    1 MOL     0.0435 ****
 49 HI2     5.047704    1.488375    7.492241 HC    1 MOL     0.0435 ****
 50 HK1     4.125070    2.870794    9.997651 HC    1 MOL     0.1066 ****
 51 HK2     5.737834    2.787416    9.328205 HC    1 MOL     0.1066 ****
 52 HK3     5.441027    2.291035   10.998922 HC    1 MOL     0.1066 ****
 53 HK      2.990858   -0.257632    9.798844 H     1 MOL     0.3529 ****
 54 H26     2.704952   -0.810127   13.257781 HC    1 MOL     0.1047 ****
 55 H27     2.936671   -1.933144   11.923153 HC    1 MOL     0.1047 ****
 56 H28     1.728375   -0.659569   11.788163 HC    1 MOL     0.1047 ****
 57 H29     7.282022    1.372032    9.680025 H     1 MOL     0.3615 ****
 58 H30     9.200556    0.130055    9.375331 H1    1 MOL     0.1469 ****
 59 H31     8.240178   -1.269753    8.908060 H1    1 MOL     0.1469 ****
 60 H32     8.413633   -0.861660   10.607588 H1    1 MOL     0.1469 ****
 61 H       4.828120    0.684785   -0.816437 H     1 MOL     0.3570 ****
 62 H34     3.710173    3.434604   -2.706288 HC    1 MOL     0.1060 ****
 63 H35     4.588171    1.902533   -2.825678 HC    1 MOL     0.1060 ****
 64 H36     5.244771    3.226201   -1.873716 HC    1 MOL     0.1060 ****
@<TRIPOS>BOND
    1     1     2 1
    2     1    29 1
    3     1    30 1
    4     1    31 1
    5     2     3 1
    6     2    32 1
    7     3     4 1
    8     3     5 1
    9     5     6 1
   10     5     7 1
   11     5    25 1
   12     6    33 1
   13     6    34 1
   14     6    35 1
   15     7     8 1
   16     7    36 1
   17     7    37 1
   18     8     9 1
   19     8    38 1
   20     8    39 1
   21     9    10 1
   22     9    40 1
   23     9    41 1
   24    10    11 1
   25    10    42 1
   26    11    12 1
   27    11    43 1
   28    12    13 1
   29    12    44 1
   30    12    45 1
   31    13    14 1
   32    13    46 1
   33    13    47 1
   34    14    15 1
   35    14    48 1
   36    14    49 1
   37    15    16 1
   38    15    17 1
   39    15    21 1
   40    16    50 1
   41    16    51 1
   42    16    52 1
   43    17    18 1
   44    17    53 1
   45    18    19 1
   46    18    20 1
   47    19    54 1
   48    19    55 1
   49    19    56 1
   50    21    22 1
   51    21    23 1
   52    23    24 1
   53    23    57 1
   54    24    58 1
   55    24    59 1
   56    24    60 1
   57    25    26 1
   58    25    61 1
   59    26    27 1
   60    26    28 1
   61    27    62 1
   62    27    63 1
   63    27    64 1
@<TRIPOS>SUBSTRUCTURE
      1  MOL              1 ****               0 ****  **** 
