@<TRIPOS>MOLECULE
MOL
   64    63     1     0     1 
SMALL
USER_CHARGES
@<TRIPOS>ATOM
  1 C1      0.000000    0.000000    0.000000 CT    1 MOL    -0.3208 ****
  2 N1      1.448187    0.000000    0.000000 N     1 MOL    -0.5622 ****
  3 C       2.123200    0.475920    1.072365 C     1 MOL     0.8053 ****
  4 O       1.590179    0.696732    2.124447 O     1 MOL    -0.6151 ****
  5 CA      3.650505    0.594143    0.921539 CX    1 MOL     0.0839 ****
  6 C1B     4.198902    1.549248    1.986845 CU    1 MOL    -0.3230 ****
  7 C2B     4.307751   -0.809116    1.023981 CU    1 MOL    -0.0657 ****
  8 CC      4.133566   -1.622781    2.319066 CU    1 MOL    -0.0109 ****
  9 CD      4.984828   -2.897620    2.482695 CU    1 MOL     0.0816 ****
 10 CE      6.473045   -2.661056    2.375346 CM    1 MOL    -0.2354 ****
 11 CF      7.340503   -2.520785    3.364587 CM    1 MOL    -0.2653 ****
 12 CY      7.056941   -2.561455    4.847049 CU    1 MOL     0.1214 ****
 13 CH      7.445445   -3.884944    5.530426 CU    1 MOL    -0.0354 ****
 14 CI      8.945520   -4.189690    5.421714 CU    1 MOL    -0.0984 ****
 15 CJ      9.502412   -5.399030    6.216707 CU    1 MOL     0.1300 ****
 16 C1K    10.999482   -5.520970    5.889047 CU    1 MOL    -0.3561 ****
 17 N2K     9.337204   -5.134628    7.639497 N     1 MOL    -0.7186 ****
 18 C15     9.607129   -6.088128    8.578131 C     1 MOL     0.8537 ****
 19 C16     9.037959   -5.810729    9.950684 CT    1 MOL    -0.3868 ****
 20 O2     10.247263   -7.074213    8.339374 O     1 MOL    -0.6323 ****
 21 C3K     8.669006   -6.649876    5.856785 C     1 MOL     0.7903 ****
 22 OF      7.626111   -6.864075    6.413935 O     1 MOL    -0.6136 ****
 23 N3      9.107686   -7.417129    4.835577 N     1 MOL    -0.5650 ****
 24 C18     8.402162   -8.631101    4.479616 CT    1 MOL    -0.3231 ****
 25 N       3.997412    1.070275   -0.425452 N     1 MOL    -0.7191 ****
 26 C19     3.587019    2.267163   -0.934086 C     1 MOL     0.8539 ****
 27 C20     4.328148    2.727659   -2.172145 CT    1 MOL    -0.3903 ****
 28 O4      2.697134    2.905425   -0.447397 O     1 MOL    -0.6290 ****
 29 H1     -0.403259    1.006147    0.000000 H1    1 MOL     0.1459 ****
 30 H2     -0.364960   -0.516002    0.875939 H1    1 MOL     0.1459 ****
 31 H3     -0.345658   -0.522086   -0.883346 H1    1 MOL     0.1459 ****
 32 H4      1.904244    0.070913   -0.879357 H     1 MOL     0.3572 ****
 33 HB1     3.932135    1.221760    2.980082 HC    1 MOL     0.0997 ****
 34 HB2     5.280920    1.595925    1.907500 HC    1 MOL     0.0997 ****
 35 HB3     3.792711    2.540594    1.848395 HC    1 MOL     0.0997 ****
 36 HB4     5.374584   -0.643250    0.891407 HC    1 MOL     0.0347 ****
 37 HB5     3.984642   -1.403324    0.174983 HC    1 MOL     0.0347 ****
 38 HC1     4.386039   -0.955167    3.137703 HC    1 MOL     0.0243 ****
 39 HC2     3.089380   -1.884572    2.455138 HC    1 MOL     0.0243 ****
 40 HD1     4.690281   -3.637299    1.749564 HC    1 MOL     0.0171 ****
 41 HD2     4.742221   -3.322448    3.450423 HC    1 MOL     0.0171 ****
 42 HE      6.857498   -2.606930    1.369672 HA    1 MOL     0.1313 ****
 43 HF      8.373196   -2.362189    3.095972 HA    1 MOL     0.1359 ****
 44 HG1     6.005567   -2.379260    5.033824 HC    1 MOL     0.0092 ****
 45 HG2     7.595749   -1.744194    5.324924 HC    1 MOL     0.0092 ****
 46 HH1     7.138248   -3.822387    6.570662 HC    1 MOL     0.0318 ****
 47 HH2     6.869956   -4.692870    5.098107 HC    1 MOL     0.0318 ****
 48 HI1     9.514814   -3.319869    5.742414 HC    1 MOL     0.0435 ****
 49 HI2     9.190729   -4.353812    4.378983 HC    1 MOL     0.0435 ****
 50 HK1    11.510427   -4.644180    6.269512 HC    1 MOL     0.1066 ****
 51 HK2    11.165820   -5.554403    4.817321 HC    1 MOL     0.1066 ****
 52 HK3    11.438768   -6.393139    6.349577 HC    1 MOL     0.1066 ****
 53 HK      8.590652   -4.520933    7.873486 H     1 MOL     0.3529 ****
 54 H26     9.588143   -6.381423   10.683259 HC    1 MOL     0.1047 ****
 55 H27     8.000739   -6.131749    9.966389 HC    1 MOL     0.1047 ****
 56 H28     9.074415   -4.756336   10.202298 HC    1 MOL     0.1047 ****
 57 H29    10.062627   -7.352895    4.572382 H     1 MOL     0.3615 ****
 58 H30     8.835970   -9.029255    3.571759 H1    1 MOL     0.1469 ****
 59 H31     7.359771   -8.409141    4.304171 H1    1 MOL     0.1469 ****
 60 H32     8.466267   -9.378761    5.263612 H1    1 MOL     0.1469 ****
 61 H       4.828120    0.684785   -0.816437 H     1 MOL     0.3570 ****
 62 H34     3.710173    3.434604   -2.706288 HC    1 MOL     0.1060 ****
 63 H35     4.588171    1.902533   -2.825678 HC    1 MOL     0.1060 ****
 64 H36     5.244771    3.226201   -1.873716 HC    1 MOL     0.1060 ****
@<TRIPOS>BOND
    1     1     2 1
    2     1    29 1
    3     1    30 1
    4     1    31 1
    5     2     3 1
    6     2    32 1
    7     3     4 1
    8     3     5 1
    9     5     6 1
   10     5     7 1
   11     5    25 1
   12     6    33 1
   13     6    34 1
   14     6    35 1
   15     7     8 1
   16     7    36 1
   17     7    37 1
   18     8     9 1
   19     8    38 1
   20     8    39 1
   21     9    10 1
   22     9    40 1
   23     9    41 1
   24    10    11 1
   25    10    42 1
   26    11    12 1
   27    11    43 1
   28    12    13 1
   29    12    44 1
   30    12    45 1
   31    13    14 1
   32    13    46 1
   33    13    47 1
   34    14    15 1
   35    14    48 1
   36    14    49 1
   37    15    16 1
   38    15    17 1
   39    15    21 1
   40    16    50 1
   41    16    51 1
   42    16    52 1
   43    17    18 1
   44    17    53 1
   45    18    19 1
   46    18    20 1
   47    19    54 1
   48    19    55 1
   49    19    56 1
   50    21    22 1
   51    21    23 1
   52    23    24 1
   53    23    57 1
   54    24    58 1
   55    24    59 1
   56    24    60 1
   57    25    26 1
   58    25    61 1
   59    26    27 1
   60    26    28 1
   61    27    62 1
   62    27    63 1
   63    27    64 1
@<TRIPOS>SUBSTRUCTURE
      1  MOL              1 ****               0 ****  **** 
