@<TRIPOS>MOLECULE
MOL
   64    63     1     0     1 
SMALL
USER_CHARGES
@<TRIPOS>ATOM
  1 C1      0.000000    0.000000    0.000000 CT    1 MOL    -0.3208 ****
  2 N1      1.448187    0.000000    0.000000 N     1 MOL    -0.5622 ****
  3 C       2.123200    0.475920    1.072365 C     1 MOL     0.8053 ****
  4 O       1.590179    0.696732    2.124447 O     1 MOL    -0.6151 ****
  5 CA      3.650505    0.594143    0.921539 CX    1 MOL     0.0839 ****
  6 C1B     4.198902    1.549248    1.986845 CU    1 MOL    -0.3230 ****
  7 C2B     4.307751   -0.809116    1.023981 CU    1 MOL    -0.0657 ****
  8 CC      4.133566   -1.622781    2.319066 CU    1 MOL    -0.0109 ****
  9 CD      4.132921   -3.160057    2.203234 CU    1 MOL     0.0816 ****
 10 CE      5.374580   -3.728379    1.557037 CM    1 MOL    -0.2354 ****
 11 CF      6.433582   -4.243595    2.160216 CM    1 MOL    -0.2653 ****
 12 CY      6.663611   -4.390087    3.645268 CU    1 MOL     0.1214 ****
 13 CH      6.445109   -5.815913    4.182711 CU    1 MOL    -0.0354 ****
 14 CI      7.395148   -6.840290    3.547896 CU    1 MOL    -0.0984 ****
 15 CJ      7.404908   -8.279645    4.124790 CU    1 MOL     0.1300 ****
 16 C1K     8.384540   -9.111750    3.281359 CU    1 MOL    -0.3561 ****
 17 N2K     7.876258   -8.224298    5.501851 N     1 MOL    -0.7186 ****
 18 C15     7.852867   -9.325166    6.308449 C     1 MOL     0.8537 ****
 19 C16     8.004814   -9.037329    7.784547 CT    1 MOL    -0.3868 ****
 20 O2      7.722297  -10.440019    5.885133 O     1 MOL    -0.6323 ****
 21 C3K     5.955774   -8.816957    4.130347 C     1 MOL     0.7903 ****
 22 OF      5.211800   -8.544145    5.033677 O     1 MOL    -0.6136 ****
 23 N3      5.543263   -9.505431    3.044152 N     1 MOL    -0.5650 ****
 24 C18     4.214189  -10.080153    3.005949 CT    1 MOL    -0.3231 ****
 25 N       3.997412    1.070275   -0.425452 N     1 MOL    -0.7191 ****
 26 C19     3.587019    2.267163   -0.934086 C     1 MOL     0.8539 ****
 27 C20     4.328148    2.727659   -2.172145 CT    1 MOL    -0.3903 ****
 28 O4      2.697134    2.905425   -0.447397 O     1 MOL    -0.6290 ****
 29 H1     -0.403259    1.006147    0.000000 H1    1 MOL     0.1459 ****
 30 H2     -0.364960   -0.516002    0.875939 H1    1 MOL     0.1459 ****
 31 H3     -0.345658   -0.522086   -0.883346 H1    1 MOL     0.1459 ****
 32 H4      1.904244    0.070913   -0.879357 H     1 MOL     0.3572 ****
 33 HB1     3.932135    1.221760    2.980082 HC    1 MOL     0.0997 ****
 34 HB2     5.280920    1.595925    1.907500 HC    1 MOL     0.0997 ****
 35 HB3     3.792711    2.540594    1.848395 HC    1 MOL     0.0997 ****
 36 HB4     5.374584   -0.643250    0.891407 HC    1 MOL     0.0347 ****
 37 HB5     3.984642   -1.403324    0.174983 HC    1 MOL     0.0347 ****
 38 HC1     4.958012   -1.345432    2.969439 HC    1 MOL     0.0243 ****
 39 HC2     3.228509   -1.314423    2.832059 HC    1 MOL     0.0243 ****
 40 HD1     3.263286   -3.490273    1.650010 HC    1 MOL     0.0171 ****
 41 HD2     4.017903   -3.556528    3.205938 HC    1 MOL     0.0171 ****
 42 HE      5.380979   -3.708129    0.479232 HA    1 MOL     0.1313 ****
 43 HF      7.230468   -4.608266    1.531131 HA    1 MOL     0.1359 ****
 44 HG1     6.015437   -3.717772    4.194203 HC    1 MOL     0.0092 ****
 45 HG2     7.683093   -4.078923    3.869827 HC    1 MOL     0.0092 ****
 46 HH1     6.573829   -5.785957    5.261093 HC    1 MOL     0.0318 ****
 47 HH2     5.417060   -6.108046    4.013582 HC    1 MOL     0.0318 ****
 48 HI1     8.417334   -6.473702    3.613342 HC    1 MOL     0.0435 ****
 49 HI2     7.161620   -6.921591    2.492811 HC    1 MOL     0.0435 ****
 50 HK1     9.384694   -8.719194    3.423391 HC    1 MOL     0.1066 ****
 51 HK2     8.153654   -9.037721    2.223724 HC    1 MOL     0.1066 ****
 52 HK3     8.384722  -10.149701    3.578676 HC    1 MOL     0.1066 ****
 53 HK      7.716881   -7.362152    5.970909 H     1 MOL     0.3529 ****
 54 H26     8.343904   -9.931141    8.285725 HC    1 MOL     0.1047 ****
 55 H27     7.034041   -8.760607    8.184734 HC    1 MOL     0.1047 ****
 56 H28     8.697687   -8.224379    7.972755 HC    1 MOL     0.1047 ****
 57 H29     6.229726   -9.908555    2.451220 H     1 MOL     0.3615 ****
 58 H30     4.038685  -10.479224    2.015565 H1    1 MOL     0.1469 ****
 59 H31     3.479984   -9.315477    3.212927 H1    1 MOL     0.1469 ****
 60 H32     4.097614  -10.874123    3.736548 H1    1 MOL     0.1469 ****
 61 H       4.828120    0.684785   -0.816437 H     1 MOL     0.3570 ****
 62 H34     3.710173    3.434604   -2.706288 HC    1 MOL     0.1060 ****
 63 H35     4.588171    1.902533   -2.825678 HC    1 MOL     0.1060 ****
 64 H36     5.244771    3.226201   -1.873716 HC    1 MOL     0.1060 ****
@<TRIPOS>BOND
    1     1     2 1
    2     1    29 1
    3     1    30 1
    4     1    31 1
    5     2     3 1
    6     2    32 1
    7     3     4 1
    8     3     5 1
    9     5     6 1
   10     5     7 1
   11     5    25 1
   12     6    33 1
   13     6    34 1
   14     6    35 1
   15     7     8 1
   16     7    36 1
   17     7    37 1
   18     8     9 1
   19     8    38 1
   20     8    39 1
   21     9    10 1
   22     9    40 1
   23     9    41 1
   24    10    11 1
   25    10    42 1
   26    11    12 1
   27    11    43 1
   28    12    13 1
   29    12    44 1
   30    12    45 1
   31    13    14 1
   32    13    46 1
   33    13    47 1
   34    14    15 1
   35    14    48 1
   36    14    49 1
   37    15    16 1
   38    15    17 1
   39    15    21 1
   40    16    50 1
   41    16    51 1
   42    16    52 1
   43    17    18 1
   44    17    53 1
   45    18    19 1
   46    18    20 1
   47    19    54 1
   48    19    55 1
   49    19    56 1
   50    21    22 1
   51    21    23 1
   52    23    24 1
   53    23    57 1
   54    24    58 1
   55    24    59 1
   56    24    60 1
   57    25    26 1
   58    25    61 1
   59    26    27 1
   60    26    28 1
   61    27    62 1
   62    27    63 1
   63    27    64 1
@<TRIPOS>SUBSTRUCTURE
      1  MOL              1 ****               0 ****  **** 
