@<TRIPOS>MOLECULE
MOL
   64    63     1     0     1 
SMALL
USER_CHARGES
@<TRIPOS>ATOM
  1 C1      0.000000    0.000000    0.000000 CT    1 MOL    -0.3208 ****
  2 N1      1.448187    0.000000    0.000000 N     1 MOL    -0.5622 ****
  3 C       2.123200    0.475920    1.072365 C     1 MOL     0.8053 ****
  4 O       1.590179    0.696732    2.124447 O     1 MOL    -0.6151 ****
  5 CA      3.650505    0.594143    0.921539 CX    1 MOL     0.0839 ****
  6 C1B     4.198902    1.549248    1.986845 CU    1 MOL    -0.3230 ****
  7 C2B     4.307751   -0.809116    1.023981 CU    1 MOL    -0.0657 ****
  8 CC      4.133566   -1.622781    2.319066 CU    1 MOL    -0.0109 ****
  9 CD      5.372677   -1.812951    3.216326 CU    1 MOL     0.0816 ****
 10 CE      6.015277   -0.519456    3.659285 CM    1 MOL    -0.2354 ****
 11 CF      5.856632    0.105229    4.814862 CM    1 MOL    -0.2653 ****
 12 CY      4.992279   -0.320219    5.977463 CU    1 MOL     0.1214 ****
 13 CH      5.768382   -0.957148    7.144319 CU    1 MOL    -0.0354 ****
 14 CI      6.795885   -0.000761    7.764381 CU    1 MOL    -0.0984 ****
 15 CJ      7.521098   -0.450825    9.059045 CU    1 MOL     0.1300 ****
 16 C1K     8.530001    0.647449    9.432354 CU    1 MOL    -0.3561 ****
 17 N2K     6.533684   -0.583928   10.121509 N     1 MOL    -0.7186 ****
 18 C15     6.862233   -1.105860   11.339170 C     1 MOL     0.8537 ****
 19 C16     5.686559   -1.530809   12.188885 CT    1 MOL    -0.3868 ****
 20 O2      7.996027   -1.221419   11.713735 O     1 MOL    -0.6323 ****
 21 C3K     8.154907   -1.838367    8.810575 C     1 MOL     0.7903 ****
 22 OF      7.494883   -2.835712    8.927192 O     1 MOL    -0.6136 ****
 23 N3      9.429203   -1.869444    8.364275 N     1 MOL    -0.5650 ****
 24 C18    10.100006   -3.136892    8.159828 CT    1 MOL    -0.3231 ****
 25 N       3.997412    1.070275   -0.425452 N     1 MOL    -0.7191 ****
 26 C19     3.587019    2.267163   -0.934086 C     1 MOL     0.8539 ****
 27 C20     4.328148    2.727659   -2.172145 CT    1 MOL    -0.3903 ****
 28 O4      2.697134    2.905425   -0.447397 O     1 MOL    -0.6290 ****
 29 H1     -0.403259    1.006147    0.000000 H1    1 MOL     0.1459 ****
 30 H2     -0.364960   -0.516002    0.875939 H1    1 MOL     0.1459 ****
 31 H3     -0.345658   -0.522086   -0.883346 H1    1 MOL     0.1459 ****
 32 H4      1.904244    0.070913   -0.879357 H     1 MOL     0.3572 ****
 33 HB1     3.932135    1.221760    2.980082 HC    1 MOL     0.0997 ****
 34 HB2     5.280920    1.595925    1.907500 HC    1 MOL     0.0997 ****
 35 HB3     3.792711    2.540594    1.848395 HC    1 MOL     0.0997 ****
 36 HB4     5.374584   -0.643250    0.891407 HC    1 MOL     0.0347 ****
 37 HB5     3.984642   -1.403324    0.174983 HC    1 MOL     0.0347 ****
 38 HC1     3.381257   -1.106011    2.907792 HC    1 MOL     0.0243 ****
 39 HC2     3.718935   -2.599186    2.090839 HC    1 MOL     0.0243 ****
 40 HD1     6.110819   -2.418367    2.706442 HC    1 MOL     0.0171 ****
 41 HD2     5.057597   -2.389070    4.079255 HC    1 MOL     0.0171 ****
 42 HE      6.680371   -0.068164    2.940884 HA    1 MOL     0.1313 ****
 43 HF      6.404526    1.023386    4.958253 HA    1 MOL     0.1359 ****
 44 HG1     4.238176   -1.024367    5.647357 HC    1 MOL     0.0092 ****
 45 HG2     4.452621    0.551840    6.344717 HC    1 MOL     0.0092 ****
 46 HH1     5.043419   -1.279497    7.886540 HC    1 MOL     0.0318 ****
 47 HH2     6.259921   -1.856723    6.797931 HC    1 MOL     0.0318 ****
 48 HI1     6.314370    0.947590    7.993089 HC    1 MOL     0.0435 ****
 49 HI2     7.561680    0.209910    7.027140 HC    1 MOL     0.0435 ****
 50 HK1     7.983866    1.548569    9.685930 HC    1 MOL     0.1066 ****
 51 HK2     9.179198    0.885504    8.596139 HC    1 MOL     0.1066 ****
 52 HK3     9.129103    0.365459   10.285171 HC    1 MOL     0.1066 ****
 53 HK      5.608597   -0.786710    9.818516 H     1 MOL     0.3529 ****
 54 H26     5.993702   -1.569661   13.222913 HC    1 MOL     0.1047 ****
 55 H27     5.377668   -2.524851   11.879707 HC    1 MOL     0.1047 ****
 56 H28     4.841169   -0.859957   12.080926 HC    1 MOL     0.1047 ****
 57 H29    10.000915   -1.071299    8.510632 H     1 MOL     0.3615 ****
 58 H30    11.056666   -2.949649    7.690080 H1    1 MOL     0.1469 ****
 59 H31     9.505719   -3.763745    7.511366 H1    1 MOL     0.1469 ****
 60 H32    10.258656   -3.664034    9.095085 H1    1 MOL     0.1469 ****
 61 H       4.828120    0.684785   -0.816437 H     1 MOL     0.3570 ****
 62 H34     3.710173    3.434604   -2.706288 HC    1 MOL     0.1060 ****
 63 H35     4.588171    1.902533   -2.825678 HC    1 MOL     0.1060 ****
 64 H36     5.244771    3.226201   -1.873716 HC    1 MOL     0.1060 ****
@<TRIPOS>BOND
    1     1     2 1
    2     1    29 1
    3     1    30 1
    4     1    31 1
    5     2     3 1
    6     2    32 1
    7     3     4 1
    8     3     5 1
    9     5     6 1
   10     5     7 1
   11     5    25 1
   12     6    33 1
   13     6    34 1
   14     6    35 1
   15     7     8 1
   16     7    36 1
   17     7    37 1
   18     8     9 1
   19     8    38 1
   20     8    39 1
   21     9    10 1
   22     9    40 1
   23     9    41 1
   24    10    11 1
   25    10    42 1
   26    11    12 1
   27    11    43 1
   28    12    13 1
   29    12    44 1
   30    12    45 1
   31    13    14 1
   32    13    46 1
   33    13    47 1
   34    14    15 1
   35    14    48 1
   36    14    49 1
   37    15    16 1
   38    15    17 1
   39    15    21 1
   40    16    50 1
   41    16    51 1
   42    16    52 1
   43    17    18 1
   44    17    53 1
   45    18    19 1
   46    18    20 1
   47    19    54 1
   48    19    55 1
   49    19    56 1
   50    21    22 1
   51    21    23 1
   52    23    24 1
   53    23    57 1
   54    24    58 1
   55    24    59 1
   56    24    60 1
   57    25    26 1
   58    25    61 1
   59    26    27 1
   60    26    28 1
   61    27    62 1
   62    27    63 1
   63    27    64 1
@<TRIPOS>SUBSTRUCTURE
      1  MOL              1 ****               0 ****  **** 
