@<TRIPOS>MOLECULE
MOL
   64    63     1     0     1 
SMALL
USER_CHARGES
@<TRIPOS>ATOM
  1 C1      0.000000    0.000000    0.000000 CT    1 MOL    -0.3208 ****
  2 N1      1.448187    0.000000    0.000000 N     1 MOL    -0.5622 ****
  3 C       2.123200    0.475920    1.072365 C     1 MOL     0.8053 ****
  4 O       1.590179    0.696732    2.124447 O     1 MOL    -0.6151 ****
  5 CA      3.650505    0.594143    0.921539 CX    1 MOL     0.0839 ****
  6 C1B     4.198902    1.549248    1.986845 CU    1 MOL    -0.3230 ****
  7 C2B     4.307751   -0.809116    1.023981 CU    1 MOL    -0.0657 ****
  8 CC      4.133566   -1.622781    2.319066 CU    1 MOL    -0.0109 ****
  9 CD      3.444887   -2.997922    2.212560 CU    1 MOL     0.0816 ****
 10 CE      4.116163   -3.948680    1.249375 CM    1 MOL    -0.2354 ****
 11 CF      4.965964   -4.921207    1.537101 CM    1 MOL    -0.2653 ****
 12 CY      5.476312   -5.320973    2.900731 CU    1 MOL     0.1214 ****
 13 CH      4.810685   -6.581407    3.481948 CU    1 MOL    -0.0354 ****
 14 CI      5.036278   -7.825178    2.611858 CU    1 MOL    -0.0984 ****
 15 CJ      4.572847   -9.196609    3.167784 CU    1 MOL     0.1300 ****
 16 C1K     4.854064  -10.254650    2.088470 CU    1 MOL    -0.3561 ****
 17 N2K     5.351957   -9.501057    4.360189 N     1 MOL    -0.7186 ****
 18 C15     5.062637  -10.579681    5.144995 C     1 MOL     0.8537 ****
 19 C16     5.689161  -10.553789    6.520350 CT    1 MOL    -0.3868 ****
 20 O2      4.364955  -11.483853    4.777769 O     1 MOL    -0.6323 ****
 21 C3K     3.086443   -9.084717    3.576206 C     1 MOL     0.7903 ****
 22 OF      2.785029   -8.636173    4.649465 O     1 MOL    -0.6136 ****
 23 N3      2.160149   -9.410336    2.648880 N     1 MOL    -0.5650 ****
 24 C18     0.750882   -9.376701    2.982104 CT    1 MOL    -0.3231 ****
 25 N       3.997412    1.070275   -0.425452 N     1 MOL    -0.7191 ****
 26 C19     3.587019    2.267163   -0.934086 C     1 MOL     0.8539 ****
 27 C20     4.328148    2.727659   -2.172145 CT    1 MOL    -0.3903 ****
 28 O4      2.697134    2.905425   -0.447397 O     1 MOL    -0.6290 ****
 29 H1     -0.403259    1.006147    0.000000 H1    1 MOL     0.1459 ****
 30 H2     -0.364960   -0.516002    0.875939 H1    1 MOL     0.1459 ****
 31 H3     -0.345658   -0.522086   -0.883346 H1    1 MOL     0.1459 ****
 32 H4      1.904244    0.070913   -0.879357 H     1 MOL     0.3572 ****
 33 HB1     3.932135    1.221760    2.980082 HC    1 MOL     0.0997 ****
 34 HB2     5.280920    1.595925    1.907500 HC    1 MOL     0.0997 ****
 35 HB3     3.792711    2.540594    1.848395 HC    1 MOL     0.0997 ****
 36 HB4     5.374584   -0.643250    0.891407 HC    1 MOL     0.0347 ****
 37 HB5     3.984642   -1.403324    0.174983 HC    1 MOL     0.0347 ****
 38 HC1     5.131452   -1.787955    2.714742 HC    1 MOL     0.0243 ****
 39 HC2     3.609430   -1.030314    3.061789 HC    1 MOL     0.0243 ****
 40 HD1     2.409562   -2.873149    1.922909 HC    1 MOL     0.0171 ****
 41 HD2     3.427339   -3.425124    3.209067 HC    1 MOL     0.0171 ****
 42 HE      3.859293   -3.807833    0.211929 HA    1 MOL     0.1313 ****
 43 HF      5.342897   -5.506431    0.712968 HA    1 MOL     0.1359 ****
 44 HG1     5.340141   -4.509862    3.605730 HC    1 MOL     0.0092 ****
 45 HG2     6.550829   -5.486616    2.833128 HC    1 MOL     0.0092 ****
 46 HH1     5.206470   -6.732719    4.482364 HC    1 MOL     0.0318 ****
 47 HH2     3.750836   -6.401474    3.605128 HC    1 MOL     0.0318 ****
 48 HI1     6.096877   -7.923381    2.390455 HC    1 MOL     0.0435 ****
 49 HI2     4.533396   -7.679713    1.663017 HC    1 MOL     0.0435 ****
 50 HK1     5.925941  -10.329197    1.946680 HC    1 MOL     0.1066 ****
 51 HK2     4.419420   -9.969644    1.135980 HC    1 MOL     0.1066 ****
 52 HK3     4.484070  -11.227003    2.377212 HC    1 MOL     0.1066 ****
 53 HK      5.701218   -8.710863    4.852451 H     1 MOL     0.3529 ****
 54 H26     5.726316  -11.559446    6.910650 HC    1 MOL     0.1047 ****
 55 H27     5.066064   -9.949683    7.172984 HC    1 MOL     0.1047 ****
 56 H28     6.686222  -10.127095    6.506797 HC    1 MOL     0.1047 ****
 57 H29     2.433872   -9.988933    1.890190 H     1 MOL     0.3615 ****
 58 H30     0.178407   -9.549786    2.080309 H1    1 MOL     0.1469 ****
 59 H31     0.493637   -8.406926    3.382090 H1    1 MOL     0.1469 ****
 60 H32     0.493144  -10.130777    3.718782 H1    1 MOL     0.1469 ****
 61 H       4.828120    0.684785   -0.816437 H     1 MOL     0.3570 ****
 62 H34     3.710173    3.434604   -2.706288 HC    1 MOL     0.1060 ****
 63 H35     4.588171    1.902533   -2.825678 HC    1 MOL     0.1060 ****
 64 H36     5.244771    3.226201   -1.873716 HC    1 MOL     0.1060 ****
@<TRIPOS>BOND
    1     1     2 1
    2     1    29 1
    3     1    30 1
    4     1    31 1
    5     2     3 1
    6     2    32 1
    7     3     4 1
    8     3     5 1
    9     5     6 1
   10     5     7 1
   11     5    25 1
   12     6    33 1
   13     6    34 1
   14     6    35 1
   15     7     8 1
   16     7    36 1
   17     7    37 1
   18     8     9 1
   19     8    38 1
   20     8    39 1
   21     9    10 1
   22     9    40 1
   23     9    41 1
   24    10    11 1
   25    10    42 1
   26    11    12 1
   27    11    43 1
   28    12    13 1
   29    12    44 1
   30    12    45 1
   31    13    14 1
   32    13    46 1
   33    13    47 1
   34    14    15 1
   35    14    48 1
   36    14    49 1
   37    15    16 1
   38    15    17 1
   39    15    21 1
   40    16    50 1
   41    16    51 1
   42    16    52 1
   43    17    18 1
   44    17    53 1
   45    18    19 1
   46    18    20 1
   47    19    54 1
   48    19    55 1
   49    19    56 1
   50    21    22 1
   51    21    23 1
   52    23    24 1
   53    23    57 1
   54    24    58 1
   55    24    59 1
   56    24    60 1
   57    25    26 1
   58    25    61 1
   59    26    27 1
   60    26    28 1
   61    27    62 1
   62    27    63 1
   63    27    64 1
@<TRIPOS>SUBSTRUCTURE
      1  MOL              1 ****               0 ****  **** 
