@<TRIPOS>MOLECULE
MOL
   64    63     1     0     1 
SMALL
USER_CHARGES
@<TRIPOS>ATOM
  1 C1      0.000000    0.000000    0.000000 CT    1 MOL    -0.3208 ****
  2 N1      1.448187    0.000000    0.000000 N     1 MOL    -0.5622 ****
  3 C       2.123200    0.475920    1.072365 C     1 MOL     0.8053 ****
  4 O       1.590179    0.696732    2.124447 O     1 MOL    -0.6151 ****
  5 CA      3.650505    0.594143    0.921539 CX    1 MOL     0.0839 ****
  6 C1B     4.198902    1.549248    1.986845 CU    1 MOL    -0.3230 ****
  7 C2B     4.307751   -0.809116    1.023981 CU    1 MOL    -0.0657 ****
  8 CC      4.133566   -1.622781    2.319066 CU    1 MOL    -0.0109 ****
  9 CD      5.265859   -2.592256    2.712344 CU    1 MOL     0.0816 ****
 10 CE      6.618281   -1.933652    2.851887 CM    1 MOL    -0.2354 ****
 11 CF      7.209721   -1.534986    3.966347 CM    1 MOL    -0.2653 ****
 12 CY      6.678082   -1.638889    5.375715 CU    1 MOL     0.1214 ****
 13 CH      7.292045   -2.783550    6.201769 CU    1 MOL    -0.0354 ****
 14 CI      8.809680   -2.639293    6.377515 CU    1 MOL    -0.0984 ****
 15 CJ      9.528753   -3.624378    7.335214 CU    1 MOL     0.1300 ****
 16 C1K    11.032459   -3.308737    7.283366 CU    1 MOL    -0.3561 ****
 17 N2K     9.032870   -3.402694    8.686690 N     1 MOL    -0.7186 ****
 18 C15     9.382573   -4.224960    9.718505 C     1 MOL     0.8537 ****
 19 C16     8.512455   -4.109136   10.949068 CT    1 MOL    -0.3868 ****
 20 O2     10.309316   -4.984524    9.660613 O     1 MOL    -0.6323 ****
 21 C3K     9.167512   -5.067957    6.917707 C     1 MOL     0.7903 ****
 22 OF      8.143646   -5.570077    7.296524 O     1 MOL    -0.6136 ****
 23 N3      9.988561   -5.686190    6.041552 N     1 MOL    -0.5650 ****
 24 C18     9.736373   -7.057192    5.647906 CT    1 MOL    -0.3231 ****
 25 N       3.997412    1.070275   -0.425452 N     1 MOL    -0.7191 ****
 26 C19     3.587019    2.267163   -0.934086 C     1 MOL     0.8539 ****
 27 C20     4.328148    2.727659   -2.172145 CT    1 MOL    -0.3903 ****
 28 O4      2.697134    2.905425   -0.447397 O     1 MOL    -0.6290 ****
 29 H1     -0.403259    1.006147    0.000000 H1    1 MOL     0.1459 ****
 30 H2     -0.364960   -0.516002    0.875939 H1    1 MOL     0.1459 ****
 31 H3     -0.345658   -0.522086   -0.883346 H1    1 MOL     0.1459 ****
 32 H4      1.904244    0.070913   -0.879357 H     1 MOL     0.3572 ****
 33 HB1     3.932135    1.221760    2.980082 HC    1 MOL     0.0997 ****
 34 HB2     5.280920    1.595925    1.907500 HC    1 MOL     0.0997 ****
 35 HB3     3.792711    2.540594    1.848395 HC    1 MOL     0.0997 ****
 36 HB4     5.374584   -0.643250    0.891407 HC    1 MOL     0.0347 ****
 37 HB5     3.984642   -1.403324    0.174983 HC    1 MOL     0.0347 ****
 38 HC1     4.028617   -0.900894    3.123730 HC    1 MOL     0.0243 ****
 39 HC2     3.200551   -2.175805    2.287117 HC    1 MOL     0.0243 ****
 40 HD1     5.335766   -3.394318    1.989037 HC    1 MOL     0.0171 ****
 41 HD2     4.977901   -3.057807    3.648387 HC    1 MOL     0.0171 ****
 42 HE      7.152048   -1.781817    1.927683 HA    1 MOL     0.1313 ****
 43 HF      8.185972   -1.085596    3.872838 HA    1 MOL     0.1359 ****
 44 HG1     5.602695   -1.768713    5.363229 HC    1 MOL     0.0092 ****
 45 HG2     6.863461   -0.694484    5.885938 HC    1 MOL     0.0092 ****
 46 HH1     6.791333   -2.800853    7.165804 HC    1 MOL     0.0318 ****
 47 HH2     7.061019   -3.729172    5.729269 HC    1 MOL     0.0318 ****
 48 HI1     9.038113   -1.637596    6.735224 HC    1 MOL     0.0435 ****
 49 HI2     9.281418   -2.737230    5.406834 HC    1 MOL     0.0435 ****
 50 HK1    11.192889   -2.316664    7.689117 HC    1 MOL     0.1066 ****
 51 HK2    11.398296   -3.304988    6.261833 HC    1 MOL     0.1066 ****
 52 HK3    11.607509   -4.009544    7.869818 HC    1 MOL     0.1066 ****
 53 HK      8.112745   -3.030399    8.745670 H     1 MOL     0.3529 ****
 54 H26     9.055398   -4.486027   11.802431 HC    1 MOL     0.1047 ****
 55 H27     7.625272   -4.718216   10.803973 HC    1 MOL     0.1047 ****
 56 H28     8.200215   -3.086954   11.133547 HC    1 MOL     0.1047 ****
 57 H29    10.917490   -5.349650    5.945940 H     1 MOL     0.3615 ****
 58 H30    10.426822   -7.322439    4.858068 H1    1 MOL     0.1469 ****
 59 H31     8.725698   -7.150666    5.278548 H1    1 MOL     0.1469 ****
 60 H32     9.862867   -7.744366    6.478295 H1    1 MOL     0.1469 ****
 61 H       4.828120    0.684785   -0.816437 H     1 MOL     0.3570 ****
 62 H34     3.710173    3.434604   -2.706288 HC    1 MOL     0.1060 ****
 63 H35     4.588171    1.902533   -2.825678 HC    1 MOL     0.1060 ****
 64 H36     5.244771    3.226201   -1.873716 HC    1 MOL     0.1060 ****
@<TRIPOS>BOND
    1     1     2 1
    2     1    29 1
    3     1    30 1
    4     1    31 1
    5     2     3 1
    6     2    32 1
    7     3     4 1
    8     3     5 1
    9     5     6 1
   10     5     7 1
   11     5    25 1
   12     6    33 1
   13     6    34 1
   14     6    35 1
   15     7     8 1
   16     7    36 1
   17     7    37 1
   18     8     9 1
   19     8    38 1
   20     8    39 1
   21     9    10 1
   22     9    40 1
   23     9    41 1
   24    10    11 1
   25    10    42 1
   26    11    12 1
   27    11    43 1
   28    12    13 1
   29    12    44 1
   30    12    45 1
   31    13    14 1
   32    13    46 1
   33    13    47 1
   34    14    15 1
   35    14    48 1
   36    14    49 1
   37    15    16 1
   38    15    17 1
   39    15    21 1
   40    16    50 1
   41    16    51 1
   42    16    52 1
   43    17    18 1
   44    17    53 1
   45    18    19 1
   46    18    20 1
   47    19    54 1
   48    19    55 1
   49    19    56 1
   50    21    22 1
   51    21    23 1
   52    23    24 1
   53    23    57 1
   54    24    58 1
   55    24    59 1
   56    24    60 1
   57    25    26 1
   58    25    61 1
   59    26    27 1
   60    26    28 1
   61    27    62 1
   62    27    63 1
   63    27    64 1
@<TRIPOS>SUBSTRUCTURE
      1  MOL              1 ****               0 ****  **** 
