@<TRIPOS>MOLECULE
MOL
   64    63     1     0     1 
SMALL
USER_CHARGES
@<TRIPOS>ATOM
  1 C1      0.000000    0.000000    0.000000 CT    1 MOL    -0.3208 ****
  2 N1      1.448187    0.000000    0.000000 N     1 MOL    -0.5622 ****
  3 C       2.123200    0.475920    1.072365 C     1 MOL     0.8053 ****
  4 O       1.590179    0.696732    2.124447 O     1 MOL    -0.6151 ****
  5 CA      3.650505    0.594143    0.921539 CX    1 MOL     0.0839 ****
  6 C1B     4.198902    1.549248    1.986845 CU    1 MOL    -0.3230 ****
  7 C2B     4.307751   -0.809116    1.023981 CU    1 MOL    -0.0657 ****
  8 CC      4.133566   -1.622781    2.319066 CU    1 MOL    -0.0109 ****
  9 CD      2.832729   -2.433298    2.484965 CU    1 MOL     0.0816 ****
 10 CE      1.601517   -1.583496    2.695275 CM    1 MOL    -0.2354 ****
 11 CF      0.706633   -1.222727    1.789854 CM    1 MOL    -0.2653 ****
 12 CY      0.695312   -1.570710    0.320659 CU    1 MOL     0.1214 ****
 13 CH     -0.295206   -2.686300   -0.058678 CU    1 MOL    -0.0354 ****
 14 CI     -1.751263   -2.317849    0.256054 CU    1 MOL    -0.0984 ****
 15 CJ     -2.867449   -3.274837   -0.236845 CU    1 MOL     0.1300 ****
 16 C1K    -4.211309   -2.714893    0.257073 CU    1 MOL    -0.3561 ****
 17 N2K    -2.854657   -3.291321   -1.693243 N     1 MOL    -0.7186 ****
 18 C15    -3.634873   -4.157223   -2.403547 C     1 MOL     0.8537 ****
 19 C16    -3.243858   -4.324670   -3.854021 CT    1 MOL    -0.3868 ****
 20 O2     -4.562654   -4.744344   -1.920170 O     1 MOL    -0.6323 ****
 21 C3K    -2.549721   -4.701254    0.266254 C     1 MOL     0.7903 ****
 22 OF     -1.787740   -5.402925   -0.342820 O     1 MOL    -0.6136 ****
 23 N3     -3.076485   -5.074370    1.452544 N     1 MOL    -0.5650 ****
 24 C18    -2.860236   -6.414608    1.957718 CT    1 MOL    -0.3231 ****
 25 N       3.997412    1.070275   -0.425452 N     1 MOL    -0.7191 ****
 26 C19     3.587019    2.267163   -0.934086 C     1 MOL     0.8539 ****
 27 C20     4.328148    2.727659   -2.172145 CT    1 MOL    -0.3903 ****
 28 O4      2.697134    2.905425   -0.447397 O     1 MOL    -0.6290 ****
 29 H1     -0.403259    1.006147    0.000000 H1    1 MOL     0.1459 ****
 30 H2     -0.364960   -0.516002    0.875939 H1    1 MOL     0.1459 ****
 31 H3     -0.345658   -0.522086   -0.883346 H1    1 MOL     0.1459 ****
 32 H4      1.904244    0.070913   -0.879357 H     1 MOL     0.3572 ****
 33 HB1     3.932135    1.221760    2.980082 HC    1 MOL     0.0997 ****
 34 HB2     5.280920    1.595925    1.907500 HC    1 MOL     0.0997 ****
 35 HB3     3.792711    2.540594    1.848395 HC    1 MOL     0.0997 ****
 36 HB4     5.374584   -0.643250    0.891407 HC    1 MOL     0.0347 ****
 37 HB5     3.984642   -1.403324    0.174983 HC    1 MOL     0.0347 ****
 38 HC1     4.961565   -2.324757    2.354635 HC    1 MOL     0.0243 ****
 39 HC2     4.250121   -0.975721    3.182259 HC    1 MOL     0.0243 ****
 40 HD1     2.929806   -3.126138    3.310745 HC    1 MOL     0.0171 ****
 41 HD2     2.719502   -3.042485    1.595075 HC    1 MOL     0.0171 ****
 42 HE      1.446350   -1.243137    3.706311 HA    1 MOL     0.1313 ****
 43 HF     -0.117037   -0.612803    2.126485 HA    1 MOL     0.1359 ****
 44 HG1     1.684668   -1.871539   -0.002052 HC    1 MOL     0.0092 ****
 45 HG2     0.451758   -0.672675   -0.245741 HC    1 MOL     0.0092 ****
 46 HH1    -0.169406   -2.893929   -1.117658 HC    1 MOL     0.0318 ****
 47 HH2    -0.022570   -3.597227    0.457763 HC    1 MOL     0.0318 ****
 48 HI1    -1.974889   -1.339380   -0.163618 HC    1 MOL     0.0435 ****
 49 HI2    -1.860921   -2.227134    1.330343 HC    1 MOL     0.0435 ****
 50 HK1    -4.389640   -1.762365   -0.228177 HC    1 MOL     0.1066 ****
 51 HK2    -4.193119   -2.535985    1.327139 HC    1 MOL     0.1066 ****
 52 HK3    -5.031171   -3.374634    0.015605 HC    1 MOL     0.1066 ****
 53 HK     -1.977507   -3.082827   -2.112588 H     1 MOL     0.3529 ****
 54 H26    -4.090494   -4.702380   -4.406835 HC    1 MOL     0.1047 ****
 55 H27    -2.437585   -5.049594   -3.913455 HC    1 MOL     0.1047 ****
 56 H28    -2.901811   -3.394485   -4.294636 HC    1 MOL     0.1047 ****
 57 H29    -3.868275   -4.582519    1.793808 H     1 MOL     0.3615 ****
 58 H30    -3.255630   -6.472774    2.963303 H1    1 MOL     0.1469 ****
 59 H31    -1.801879   -6.628858    1.982295 H1    1 MOL     0.1469 ****
 60 H32    -3.346991   -7.161609    1.338999 H1    1 MOL     0.1469 ****
 61 H       4.828120    0.684785   -0.816437 H     1 MOL     0.3570 ****
 62 H34     3.710173    3.434604   -2.706288 HC    1 MOL     0.1060 ****
 63 H35     4.588171    1.902533   -2.825678 HC    1 MOL     0.1060 ****
 64 H36     5.244771    3.226201   -1.873716 HC    1 MOL     0.1060 ****
@<TRIPOS>BOND
    1     1     2 1
    2     1    29 1
    3     1    30 1
    4     1    31 1
    5     2     3 1
    6     2    32 1
    7     3     4 1
    8     3     5 1
    9     5     6 1
   10     5     7 1
   11     5    25 1
   12     6    33 1
   13     6    34 1
   14     6    35 1
   15     7     8 1
   16     7    36 1
   17     7    37 1
   18     8     9 1
   19     8    38 1
   20     8    39 1
   21     9    10 1
   22     9    40 1
   23     9    41 1
   24    10    11 1
   25    10    42 1
   26    11    12 1
   27    11    43 1
   28    12    13 1
   29    12    44 1
   30    12    45 1
   31    13    14 1
   32    13    46 1
   33    13    47 1
   34    14    15 1
   35    14    48 1
   36    14    49 1
   37    15    16 1
   38    15    17 1
   39    15    21 1
   40    16    50 1
   41    16    51 1
   42    16    52 1
   43    17    18 1
   44    17    53 1
   45    18    19 1
   46    18    20 1
   47    19    54 1
   48    19    55 1
   49    19    56 1
   50    21    22 1
   51    21    23 1
   52    23    24 1
   53    23    57 1
   54    24    58 1
   55    24    59 1
   56    24    60 1
   57    25    26 1
   58    25    61 1
   59    26    27 1
   60    26    28 1
   61    27    62 1
   62    27    63 1
   63    27    64 1
@<TRIPOS>SUBSTRUCTURE
      1  MOL              1 ****               0 ****  **** 
