@<TRIPOS>MOLECULE
MOL
   64    63     1     0     1 
SMALL
USER_CHARGES
@<TRIPOS>ATOM
  1 C1      0.000000    0.000000    0.000000 CT    1 MOL    -0.3208 ****
  2 N1      1.448187    0.000000    0.000000 N     1 MOL    -0.5622 ****
  3 C       2.123200    0.475920    1.072365 C     1 MOL     0.8053 ****
  4 O       1.590179    0.696732    2.124447 O     1 MOL    -0.6151 ****
  5 CA      3.650505    0.594143    0.921539 CX    1 MOL     0.0839 ****
  6 C1B     4.198902    1.549248    1.986845 CU    1 MOL    -0.3230 ****
  7 C2B     4.307751   -0.809116    1.023981 CU    1 MOL    -0.0657 ****
  8 CC      4.133566   -1.622781    2.319066 CU    1 MOL    -0.0109 ****
  9 CD      2.832729   -2.433298    2.484965 CU    1 MOL     0.0816 ****
 10 CE      2.579342   -3.423586    1.372579 CM    1 MOL    -0.2354 ****
 11 CF      3.460970   -3.923675    0.522050 CM    1 MOL    -0.2653 ****
 12 CY      4.939788   -3.627068    0.452222 CU    1 MOL     0.1214 ****
 13 CH      5.835399   -4.725222    1.053474 CU    1 MOL    -0.0354 ****
 14 CI      5.683511   -6.072733    0.335103 CU    1 MOL    -0.0984 ****
 15 CJ      6.654889   -7.217849    0.722119 CU    1 MOL     0.1300 ****
 16 C1K     6.253842   -8.461256   -0.088160 CU    1 MOL    -0.3561 ****
 17 N2K     8.008676   -6.819598    0.361305 N     1 MOL    -0.7186 ****
 18 C15     9.091555   -7.571075    0.715867 C     1 MOL     0.8537 ****
 19 C16    10.421624   -6.860075    0.614869 CT    1 MOL    -0.3868 ****
 20 O2      9.002325   -8.710401    1.080717 O     1 MOL    -0.6323 ****
 21 C3K     6.599703   -7.412635    2.254352 C     1 MOL     0.7903 ****
 22 OF      7.258369   -6.715171    2.977975 O     1 MOL    -0.6136 ****
 23 N3      5.716451   -8.313885    2.735596 N     1 MOL    -0.5650 ****
 24 C18     5.649233   -8.582178    4.157462 CT    1 MOL    -0.3231 ****
 25 N       3.997412    1.070275   -0.425452 N     1 MOL    -0.7191 ****
 26 C19     3.587019    2.267163   -0.934086 C     1 MOL     0.8539 ****
 27 C20     4.328148    2.727659   -2.172145 CT    1 MOL    -0.3903 ****
 28 O4      2.697134    2.905425   -0.447397 O     1 MOL    -0.6290 ****
 29 H1     -0.403259    1.006147    0.000000 H1    1 MOL     0.1459 ****
 30 H2     -0.364960   -0.516002    0.875939 H1    1 MOL     0.1459 ****
 31 H3     -0.345658   -0.522086   -0.883346 H1    1 MOL     0.1459 ****
 32 H4      1.904244    0.070913   -0.879357 H     1 MOL     0.3572 ****
 33 HB1     3.932135    1.221760    2.980082 HC    1 MOL     0.0997 ****
 34 HB2     5.280920    1.595925    1.907500 HC    1 MOL     0.0997 ****
 35 HB3     3.792711    2.540594    1.848395 HC    1 MOL     0.0997 ****
 36 HB4     5.374584   -0.643250    0.891407 HC    1 MOL     0.0347 ****
 37 HB5     3.984642   -1.403324    0.174983 HC    1 MOL     0.0347 ****
 38 HC1     4.961565   -2.324757    2.354635 HC    1 MOL     0.0243 ****
 39 HC2     4.250121   -0.975721    3.182259 HC    1 MOL     0.0243 ****
 40 HD1     1.985724   -1.764045    2.562723 HC    1 MOL     0.0171 ****
 41 HD2     2.895638   -2.948110    3.437249 HC    1 MOL     0.0171 ****
 42 HE      1.557765   -3.754193    1.276695 HA    1 MOL     0.1313 ****
 43 HF      3.096148   -4.628376   -0.208745 HA    1 MOL     0.1359 ****
 44 HG1     5.160520   -2.694864    0.957928 HC    1 MOL     0.0092 ****
 45 HG2     5.213870   -3.478002   -0.591451 HC    1 MOL     0.0092 ****
 46 HH1     6.863124   -4.376002    1.006552 HC    1 MOL     0.0318 ****
 47 HH2     5.606671   -4.837044    2.105144 HC    1 MOL     0.0318 ****
 48 HI1     5.791536   -5.924410   -0.737215 HC    1 MOL     0.0435 ****
 49 HI2     4.677083   -6.440180    0.497690 HC    1 MOL     0.0435 ****
 50 HK1     6.423083   -8.259667   -1.139492 HC    1 MOL     0.1066 ****
 51 HK2     5.199459   -8.686613    0.033784 HC    1 MOL     0.1066 ****
 52 HK3     6.841337   -9.323929    0.188218 HC    1 MOL     0.1066 ****
 53 HK      8.171911   -5.838939    0.341955 H     1 MOL     0.3529 ****
 54 H26    11.210061   -7.593887    0.544532 HC    1 MOL     0.1047 ****
 55 H27    10.570249   -6.274547    1.517195 HC    1 MOL     0.1047 ****
 56 H28    10.463539   -6.191767   -0.238355 HC    1 MOL     0.1047 ****
 57 H29     5.380385   -9.019593    2.123759 H     1 MOL     0.3615 ****
 58 H30     4.806615   -9.234220    4.346559 H1    1 MOL     0.1469 ****
 59 H31     5.507096   -7.657288    4.696907 H1    1 MOL     0.1469 ****
 60 H32     6.555539   -9.055480    4.521262 H1    1 MOL     0.1469 ****
 61 H       4.828120    0.684785   -0.816437 H     1 MOL     0.3570 ****
 62 H34     3.710173    3.434604   -2.706288 HC    1 MOL     0.1060 ****
 63 H35     4.588171    1.902533   -2.825678 HC    1 MOL     0.1060 ****
 64 H36     5.244771    3.226201   -1.873716 HC    1 MOL     0.1060 ****
@<TRIPOS>BOND
    1     1     2 1
    2     1    29 1
    3     1    30 1
    4     1    31 1
    5     2     3 1
    6     2    32 1
    7     3     4 1
    8     3     5 1
    9     5     6 1
   10     5     7 1
   11     5    25 1
   12     6    33 1
   13     6    34 1
   14     6    35 1
   15     7     8 1
   16     7    36 1
   17     7    37 1
   18     8     9 1
   19     8    38 1
   20     8    39 1
   21     9    10 1
   22     9    40 1
   23     9    41 1
   24    10    11 1
   25    10    42 1
   26    11    12 1
   27    11    43 1
   28    12    13 1
   29    12    44 1
   30    12    45 1
   31    13    14 1
   32    13    46 1
   33    13    47 1
   34    14    15 1
   35    14    48 1
   36    14    49 1
   37    15    16 1
   38    15    17 1
   39    15    21 1
   40    16    50 1
   41    16    51 1
   42    16    52 1
   43    17    18 1
   44    17    53 1
   45    18    19 1
   46    18    20 1
   47    19    54 1
   48    19    55 1
   49    19    56 1
   50    21    22 1
   51    21    23 1
   52    23    24 1
   53    23    57 1
   54    24    58 1
   55    24    59 1
   56    24    60 1
   57    25    26 1
   58    25    61 1
   59    26    27 1
   60    26    28 1
   61    27    62 1
   62    27    63 1
   63    27    64 1
@<TRIPOS>SUBSTRUCTURE
      1  MOL              1 ****               0 ****  **** 
