@<TRIPOS>MOLECULE
MOL
   64    63     1     0     1 
SMALL
USER_CHARGES
@<TRIPOS>ATOM
  1 C1      0.000000    0.000000    0.000000 CT    1 MOL    -0.3208 ****
  2 N1      1.448187    0.000000    0.000000 N     1 MOL    -0.5622 ****
  3 C       2.123200    0.475920    1.072365 C     1 MOL     0.8053 ****
  4 O       1.590179    0.696732    2.124447 O     1 MOL    -0.6151 ****
  5 CA      3.650505    0.594143    0.921539 CX    1 MOL     0.0839 ****
  6 C1B     4.198902    1.549248    1.986845 CU    1 MOL    -0.3230 ****
  7 C2B     4.307751   -0.809116    1.023981 CU    1 MOL    -0.0657 ****
  8 CC      4.133566   -1.622781    2.319066 CU    1 MOL    -0.0109 ****
  9 CD      2.832729   -2.433298    2.484965 CU    1 MOL     0.0816 ****
 10 CE      2.579342   -3.423586    1.372579 CM    1 MOL    -0.2354 ****
 11 CF      3.464391   -4.196206    0.763889 CM    1 MOL    -0.2653 ****
 12 CY      4.948333   -4.278458    1.030168 CU    1 MOL     0.1214 ****
 13 CH      5.377291   -5.506461    1.853314 CU    1 MOL    -0.0354 ****
 14 CI      5.041721   -6.832502    1.157670 CU    1 MOL    -0.0984 ****
 15 CJ      5.576303   -8.142956    1.791373 CU    1 MOL     0.1300 ****
 16 C1K     5.053006   -9.315325    0.945701 CU    1 MOL    -0.3561 ****
 17 N2K     7.031885   -8.121563    1.742865 N     1 MOL    -0.7186 ****
 18 C15     7.780210   -9.082064    2.359715 C     1 MOL     0.8537 ****
 19 C16     9.237986   -8.730397    2.549518 CT    1 MOL    -0.3868 ****
 20 O2      7.322648  -10.128775    2.726016 O     1 MOL    -0.6323 ****
 21 C3K     5.141896   -8.185012    3.274021 C     1 MOL     0.7903 ****
 22 OF      5.785386   -7.610472    4.110533 O     1 MOL    -0.6136 ****
 23 N3      3.973157   -8.797068    3.562845 N     1 MOL    -0.5650 ****
 24 C18     3.532346   -8.916697    4.937463 CT    1 MOL    -0.3231 ****
 25 N       3.997412    1.070275   -0.425452 N     1 MOL    -0.7191 ****
 26 C19     3.587019    2.267163   -0.934086 C     1 MOL     0.8539 ****
 27 C20     4.328148    2.727659   -2.172145 CT    1 MOL    -0.3903 ****
 28 O4      2.697134    2.905425   -0.447397 O     1 MOL    -0.6290 ****
 29 H1     -0.403259    1.006147    0.000000 H1    1 MOL     0.1459 ****
 30 H2     -0.364960   -0.516002    0.875939 H1    1 MOL     0.1459 ****
 31 H3     -0.345658   -0.522086   -0.883346 H1    1 MOL     0.1459 ****
 32 H4      1.904244    0.070913   -0.879357 H     1 MOL     0.3572 ****
 33 HB1     3.932135    1.221760    2.980082 HC    1 MOL     0.0997 ****
 34 HB2     5.280920    1.595925    1.907500 HC    1 MOL     0.0997 ****
 35 HB3     3.792711    2.540594    1.848395 HC    1 MOL     0.0997 ****
 36 HB4     5.374584   -0.643250    0.891407 HC    1 MOL     0.0347 ****
 37 HB5     3.984642   -1.403324    0.174983 HC    1 MOL     0.0347 ****
 38 HC1     4.961565   -2.324757    2.354635 HC    1 MOL     0.0243 ****
 39 HC2     4.250121   -0.975721    3.182259 HC    1 MOL     0.0243 ****
 40 HD1     1.985724   -1.764045    2.562723 HC    1 MOL     0.0171 ****
 41 HD2     2.895638   -2.948110    3.437249 HC    1 MOL     0.0171 ****
 42 HE      1.552972   -3.500614    1.052041 HA    1 MOL     0.1313 ****
 43 HF      3.097206   -4.850407   -0.011326 HA    1 MOL     0.1359 ****
 44 HG1     5.287463   -3.388711    1.546702 HC    1 MOL     0.0092 ****
 45 HG2     5.471094   -4.291977    0.074589 HC    1 MOL     0.0092 ****
 46 HH1     6.445213   -5.425316    2.035886 HC    1 MOL     0.0318 ****
 47 HH2     4.905118   -5.467409    2.826123 HC    1 MOL     0.0318 ****
 48 HI1     5.414175   -6.808496    0.135791 HC    1 MOL     0.0435 ****
 49 HI2     3.964066   -6.926466    1.093016 HC    1 MOL     0.0435 ****
 50 HK1     5.492307   -9.253082   -0.043097 HC    1 MOL     0.1066 ****
 51 HK2     3.975741   -9.263843    0.826403 HC    1 MOL     0.1066 ****
 52 HK3     5.323188  -10.268486    1.374915 HC    1 MOL     0.1066 ****
 53 HK      7.443218   -7.216333    1.734151 H     1 MOL     0.3529 ****
 54 H26     9.805790   -9.638384    2.684497 HC    1 MOL     0.1047 ****
 55 H27     9.333664   -8.123424    3.444814 HC    1 MOL     0.1047 ****
 56 H28     9.635117   -8.169135    1.710678 HC    1 MOL     0.1047 ****
 57 H29     3.606999   -9.449006    2.909993 H     1 MOL     0.3615 ****
 58 H30     2.529595   -9.323343    4.944576 H1    1 MOL     0.1469 ****
 59 H31     3.520671   -7.942116    5.402954 H1    1 MOL     0.1469 ****
 60 H32     4.184345   -9.564494    5.514533 H1    1 MOL     0.1469 ****
 61 H       4.828120    0.684785   -0.816437 H     1 MOL     0.3570 ****
 62 H34     3.710173    3.434604   -2.706288 HC    1 MOL     0.1060 ****
 63 H35     4.588171    1.902533   -2.825678 HC    1 MOL     0.1060 ****
 64 H36     5.244771    3.226201   -1.873716 HC    1 MOL     0.1060 ****
@<TRIPOS>BOND
    1     1     2 1
    2     1    29 1
    3     1    30 1
    4     1    31 1
    5     2     3 1
    6     2    32 1
    7     3     4 1
    8     3     5 1
    9     5     6 1
   10     5     7 1
   11     5    25 1
   12     6    33 1
   13     6    34 1
   14     6    35 1
   15     7     8 1
   16     7    36 1
   17     7    37 1
   18     8     9 1
   19     8    38 1
   20     8    39 1
   21     9    10 1
   22     9    40 1
   23     9    41 1
   24    10    11 1
   25    10    42 1
   26    11    12 1
   27    11    43 1
   28    12    13 1
   29    12    44 1
   30    12    45 1
   31    13    14 1
   32    13    46 1
   33    13    47 1
   34    14    15 1
   35    14    48 1
   36    14    49 1
   37    15    16 1
   38    15    17 1
   39    15    21 1
   40    16    50 1
   41    16    51 1
   42    16    52 1
   43    17    18 1
   44    17    53 1
   45    18    19 1
   46    18    20 1
   47    19    54 1
   48    19    55 1
   49    19    56 1
   50    21    22 1
   51    21    23 1
   52    23    24 1
   53    23    57 1
   54    24    58 1
   55    24    59 1
   56    24    60 1
   57    25    26 1
   58    25    61 1
   59    26    27 1
   60    26    28 1
   61    27    62 1
   62    27    63 1
   63    27    64 1
@<TRIPOS>SUBSTRUCTURE
      1  MOL              1 ****               0 ****  **** 
