@<TRIPOS>MOLECULE
MOL
   64    63     1     0     1 
SMALL
USER_CHARGES
@<TRIPOS>ATOM
  1 C1      0.000000    0.000000    0.000000 CT    1 MOL    -0.3208 ****
  2 N1      1.448187    0.000000    0.000000 N     1 MOL    -0.5622 ****
  3 C       2.123200    0.475920    1.072365 C     1 MOL     0.8053 ****
  4 O       1.590179    0.696732    2.124447 O     1 MOL    -0.6151 ****
  5 CA      3.650505    0.594143    0.921539 CX    1 MOL     0.0839 ****
  6 C1B     4.198902    1.549248    1.986845 CU    1 MOL    -0.3230 ****
  7 C2B     4.307751   -0.809116    1.023981 CU    1 MOL    -0.0657 ****
  8 CC      4.133566   -1.622781    2.319066 CU    1 MOL    -0.0109 ****
  9 CD      2.832729   -2.433298    2.484965 CU    1 MOL     0.0816 ****
 10 CE      2.579342   -3.423586    1.372579 CM    1 MOL    -0.2354 ****
 11 CF      2.834093   -4.721989    1.375535 CM    1 MOL    -0.2653 ****
 12 CY      4.186704   -5.392303    1.345912 CU    1 MOL     0.1214 ****
 13 CH      4.655161   -5.934524    2.708303 CU    1 MOL    -0.0354 ****
 14 CI      3.712846   -7.004562    3.275731 CU    1 MOL    -0.0984 ****
 15 CJ      4.156557   -7.761701    4.554210 CU    1 MOL     0.1300 ****
 16 C1K     3.020341   -8.721114    4.944071 CU    1 MOL    -0.3561 ****
 17 N2K     5.355434   -8.529378    4.246157 N     1 MOL    -0.7186 ****
 18 C15     6.053879   -9.182587    5.220092 C     1 MOL     0.8537 ****
 19 C16     7.451396   -9.604725    4.828239 CT    1 MOL    -0.3868 ****
 20 O2      5.599503   -9.408495    6.307130 O     1 MOL    -0.6323 ****
 21 C3K     4.512900   -6.723159    5.641949 C     1 MOL     0.7903 ****
 22 OF      5.601255   -6.214170    5.660446 O     1 MOL    -0.6136 ****
 23 N3      3.530099   -6.346204    6.488110 N     1 MOL    -0.5650 ****
 24 C18     3.809235   -5.415281    7.562199 CT    1 MOL    -0.3231 ****
 25 N       3.997412    1.070275   -0.425452 N     1 MOL    -0.7191 ****
 26 C19     3.587019    2.267163   -0.934086 C     1 MOL     0.8539 ****
 27 C20     4.328148    2.727659   -2.172145 CT    1 MOL    -0.3903 ****
 28 O4      2.697134    2.905425   -0.447397 O     1 MOL    -0.6290 ****
 29 H1     -0.403259    1.006147    0.000000 H1    1 MOL     0.1459 ****
 30 H2     -0.364960   -0.516002    0.875939 H1    1 MOL     0.1459 ****
 31 H3     -0.345658   -0.522086   -0.883346 H1    1 MOL     0.1459 ****
 32 H4      1.904244    0.070913   -0.879357 H     1 MOL     0.3572 ****
 33 HB1     3.932135    1.221760    2.980082 HC    1 MOL     0.0997 ****
 34 HB2     5.280920    1.595925    1.907500 HC    1 MOL     0.0997 ****
 35 HB3     3.792711    2.540594    1.848395 HC    1 MOL     0.0997 ****
 36 HB4     5.374584   -0.643250    0.891407 HC    1 MOL     0.0347 ****
 37 HB5     3.984642   -1.403324    0.174983 HC    1 MOL     0.0347 ****
 38 HC1     4.961565   -2.324757    2.354635 HC    1 MOL     0.0243 ****
 39 HC2     4.250121   -0.975721    3.182259 HC    1 MOL     0.0243 ****
 40 HD1     1.985724   -1.764045    2.562723 HC    1 MOL     0.0171 ****
 41 HD2     2.895638   -2.948110    3.437249 HC    1 MOL     0.0171 ****
 42 HE      2.135502   -3.009181    0.481856 HA    1 MOL     0.1313 ****
 43 HF      1.987870   -5.390367    1.406179 HA    1 MOL     0.1359 ****
 44 HG1     4.938814   -4.705143    0.977666 HC    1 MOL     0.0092 ****
 45 HG2     4.150349   -6.213420    0.631042 HC    1 MOL     0.0092 ****
 46 HH1     5.657890   -6.332148    2.578675 HC    1 MOL     0.0318 ****
 47 HH2     4.748460   -5.113484    3.406886 HC    1 MOL     0.0318 ****
 48 HI1     3.527153   -7.761376    2.516596 HC    1 MOL     0.0435 ****
 49 HI2     2.756936   -6.543263    3.494338 HC    1 MOL     0.0435 ****
 50 HK1     2.916055   -9.469300    4.166947 HC    1 MOL     0.1066 ****
 51 HK2     2.072867   -8.197818    5.020460 HC    1 MOL     0.1066 ****
 52 HK3     3.228216   -9.228346    5.874255 HC    1 MOL     0.1066 ****
 53 HK      5.913110   -8.167449    3.506753 H     1 MOL     0.3529 ****
 54 H26     7.774266  -10.403961    5.477882 HC    1 MOL     0.1047 ****
 55 H27     8.118245   -8.757909    4.959924 HC    1 MOL     0.1047 ****
 56 H28     7.505763   -9.926381    3.793848 HC    1 MOL     0.1047 ****
 57 H29     2.745514   -6.944298    6.597748 H     1 MOL     0.3615 ****
 58 H30     2.876050   -5.152403    8.042806 H1    1 MOL     0.1469 ****
 59 H31     4.263187   -4.521019    7.161140 H1    1 MOL     0.1469 ****
 60 H32     4.482786   -5.840826    8.299081 H1    1 MOL     0.1469 ****
 61 H       4.828120    0.684785   -0.816437 H     1 MOL     0.3570 ****
 62 H34     3.710173    3.434604   -2.706288 HC    1 MOL     0.1060 ****
 63 H35     4.588171    1.902533   -2.825678 HC    1 MOL     0.1060 ****
 64 H36     5.244771    3.226201   -1.873716 HC    1 MOL     0.1060 ****
@<TRIPOS>BOND
    1     1     2 1
    2     1    29 1
    3     1    30 1
    4     1    31 1
    5     2     3 1
    6     2    32 1
    7     3     4 1
    8     3     5 1
    9     5     6 1
   10     5     7 1
   11     5    25 1
   12     6    33 1
   13     6    34 1
   14     6    35 1
   15     7     8 1
   16     7    36 1
   17     7    37 1
   18     8     9 1
   19     8    38 1
   20     8    39 1
   21     9    10 1
   22     9    40 1
   23     9    41 1
   24    10    11 1
   25    10    42 1
   26    11    12 1
   27    11    43 1
   28    12    13 1
   29    12    44 1
   30    12    45 1
   31    13    14 1
   32    13    46 1
   33    13    47 1
   34    14    15 1
   35    14    48 1
   36    14    49 1
   37    15    16 1
   38    15    17 1
   39    15    21 1
   40    16    50 1
   41    16    51 1
   42    16    52 1
   43    17    18 1
   44    17    53 1
   45    18    19 1
   46    18    20 1
   47    19    54 1
   48    19    55 1
   49    19    56 1
   50    21    22 1
   51    21    23 1
   52    23    24 1
   53    23    57 1
   54    24    58 1
   55    24    59 1
   56    24    60 1
   57    25    26 1
   58    25    61 1
   59    26    27 1
   60    26    28 1
   61    27    62 1
   62    27    63 1
   63    27    64 1
@<TRIPOS>SUBSTRUCTURE
      1  MOL              1 ****               0 ****  **** 
