@<TRIPOS>MOLECULE
MOL
   64    63     1     0     1 
SMALL
USER_CHARGES
@<TRIPOS>ATOM
  1 C1      0.000000    0.000000    0.000000 CT    1 MOL    -0.3208 ****
  2 N1      1.448187    0.000000    0.000000 N     1 MOL    -0.5622 ****
  3 C       2.123200    0.475920    1.072365 C     1 MOL     0.8053 ****
  4 O       1.590179    0.696732    2.124447 O     1 MOL    -0.6151 ****
  5 CA      3.650505    0.594143    0.921539 CX    1 MOL     0.0839 ****
  6 C1B     4.198902    1.549248    1.986845 CU    1 MOL    -0.3230 ****
  7 C2B     4.307751   -0.809116    1.023981 CU    1 MOL    -0.0657 ****
  8 CC      4.133566   -1.622781    2.319066 CU    1 MOL    -0.0109 ****
  9 CD      2.832729   -2.433298    2.484965 CU    1 MOL     0.0816 ****
 10 CE      2.579342   -3.423586    1.372579 CM    1 MOL    -0.2354 ****
 11 CF      2.834093   -4.721989    1.375535 CM    1 MOL    -0.2653 ****
 12 CY      3.442731   -5.535663    2.492337 CU    1 MOL     0.1214 ****
 13 CH      2.427740   -6.370218    3.294133 CU    1 MOL    -0.0354 ****
 14 CI      1.693892   -7.402618    2.427801 CU    1 MOL    -0.0984 ****
 15 CJ      0.774274   -8.428536    3.139447 CU    1 MOL     0.1300 ****
 16 C1K     0.118887   -9.296969    2.053288 CU    1 MOL    -0.3561 ****
 17 N2K     1.595330   -9.267679    4.001559 N     1 MOL    -0.7186 ****
 18 C15     1.036779  -10.167772    4.862321 C     1 MOL     0.8537 ****
 19 C16     1.964380  -10.678762    5.940862 CT    1 MOL    -0.3868 ****
 20 O2     -0.103289  -10.530888    4.775526 O     1 MOL    -0.6323 ****
 21 C3K    -0.228361   -7.657085    4.027316 C     1 MOL     0.7903 ****
 22 OF      0.090004   -7.296707    5.128542 O     1 MOL    -0.6136 ****
 23 N3     -1.416619   -7.323616    3.478843 N     1 MOL    -0.5650 ****
 24 C18    -2.421442   -6.645250    4.271531 CT    1 MOL    -0.3231 ****
 25 N       3.997412    1.070275   -0.425452 N     1 MOL    -0.7191 ****
 26 C19     5.226962    0.907475   -0.992352 C     1 MOL     0.8539 ****
 27 C20     5.281060    1.139390   -2.488149 CT    1 MOL    -0.3903 ****
 28 O4      6.198829    0.614383   -0.355397 O     1 MOL    -0.6290 ****
 29 H1     -0.403259    1.006147    0.000000 H1    1 MOL     0.1459 ****
 30 H2     -0.364960   -0.516002    0.875939 H1    1 MOL     0.1459 ****
 31 H3     -0.345658   -0.522086   -0.883346 H1    1 MOL     0.1459 ****
 32 H4      1.904244    0.070913   -0.879357 H     1 MOL     0.3572 ****
 33 HB1     3.932135    1.221760    2.980082 HC    1 MOL     0.0997 ****
 34 HB2     5.280920    1.595925    1.907500 HC    1 MOL     0.0997 ****
 35 HB3     3.792711    2.540594    1.848395 HC    1 MOL     0.0997 ****
 36 HB4     5.374584   -0.643250    0.891407 HC    1 MOL     0.0347 ****
 37 HB5     3.984642   -1.403324    0.174983 HC    1 MOL     0.0347 ****
 38 HC1     4.961565   -2.324757    2.354635 HC    1 MOL     0.0243 ****
 39 HC2     4.250121   -0.975721    3.182259 HC    1 MOL     0.0243 ****
 40 HD1     1.985724   -1.764045    2.562723 HC    1 MOL     0.0171 ****
 41 HD2     2.895638   -2.948110    3.437249 HC    1 MOL     0.0171 ****
 42 HE      2.135502   -3.009181    0.481856 HA    1 MOL     0.1313 ****
 43 HF      2.579482   -5.276386    0.485828 HA    1 MOL     0.1359 ****
 44 HG1     3.971519   -4.889909    3.182881 HC    1 MOL     0.0092 ****
 45 HG2     4.191817   -6.202016    2.066382 HC    1 MOL     0.0092 ****
 46 HH1     2.965623   -6.856910    4.102952 HC    1 MOL     0.0318 ****
 47 HH2     1.714584   -5.707921    3.766998 HC    1 MOL     0.0318 ****
 48 HI1     2.420810   -7.979938    1.860503 HC    1 MOL     0.0435 ****
 49 HI2     1.083167   -6.875737    1.704087 HC    1 MOL     0.0435 ****
 50 HK1     0.891187   -9.872528    1.556434 HC    1 MOL     0.1066 ****
 51 HK2    -0.365510   -8.684705    1.299714 HC    1 MOL     0.1066 ****
 52 HK3    -0.597925   -9.986790    2.472891 HC    1 MOL     0.1066 ****
 53 HK      2.435807   -8.847840    4.327205 H     1 MOL     0.3529 ****
 54 H26     1.585188  -11.616367    6.317920 HC    1 MOL     0.1047 ****
 55 H27     1.981002   -9.957975    6.752844 HC    1 MOL     0.1047 ****
 56 H28     2.978170  -10.810647    5.578620 HC    1 MOL     0.1047 ****
 57 H29    -1.730263   -7.831365    2.685667 H     1 MOL     0.3615 ****
 58 H30    -3.240210   -6.362494    3.623002 H1    1 MOL     0.1469 ****
 59 H31    -1.998054   -5.755067    4.713054 H1    1 MOL     0.1469 ****
 60 H32    -2.799425   -7.276973    5.068907 H1    1 MOL     0.1469 ****
 61 H       3.231818    1.179209   -1.052784 H     1 MOL     0.3570 ****
 62 H34     6.297890    1.372322   -2.768813 HC    1 MOL     0.1060 ****
 63 H35     4.622097    1.940559   -2.803499 HC    1 MOL     0.1060 ****
 64 H36     4.980481    0.231111   -3.000480 HC    1 MOL     0.1060 ****
@<TRIPOS>BOND
    1     1     2 1
    2     1    29 1
    3     1    30 1
    4     1    31 1
    5     2     3 1
    6     2    32 1
    7     3     4 1
    8     3     5 1
    9     5     6 1
   10     5     7 1
   11     5    25 1
   12     6    33 1
   13     6    34 1
   14     6    35 1
   15     7     8 1
   16     7    36 1
   17     7    37 1
   18     8     9 1
   19     8    38 1
   20     8    39 1
   21     9    10 1
   22     9    40 1
   23     9    41 1
   24    10    11 1
   25    10    42 1
   26    11    12 1
   27    11    43 1
   28    12    13 1
   29    12    44 1
   30    12    45 1
   31    13    14 1
   32    13    46 1
   33    13    47 1
   34    14    15 1
   35    14    48 1
   36    14    49 1
   37    15    16 1
   38    15    17 1
   39    15    21 1
   40    16    50 1
   41    16    51 1
   42    16    52 1
   43    17    18 1
   44    17    53 1
   45    18    19 1
   46    18    20 1
   47    19    54 1
   48    19    55 1
   49    19    56 1
   50    21    22 1
   51    21    23 1
   52    23    24 1
   53    23    57 1
   54    24    58 1
   55    24    59 1
   56    24    60 1
   57    25    26 1
   58    25    61 1
   59    26    27 1
   60    26    28 1
   61    27    62 1
   62    27    63 1
   63    27    64 1
@<TRIPOS>SUBSTRUCTURE
      1  MOL              1 ****               0 ****  **** 
