@<TRIPOS>MOLECULE
MOL
   64    63     1     0     1 
SMALL
USER_CHARGES
@<TRIPOS>ATOM
  1 C1      0.000000    0.000000    0.000000 CT    1 MOL    -0.3208 ****
  2 N1      1.448187    0.000000    0.000000 N     1 MOL    -0.5622 ****
  3 C       2.123200    0.475920    1.072365 C     1 MOL     0.8053 ****
  4 O       1.590179    0.696732    2.124447 O     1 MOL    -0.6151 ****
  5 CA      3.650505    0.594143    0.921539 CX    1 MOL     0.0839 ****
  6 C1B     4.155515   -0.482316   -0.044920 CU    1 MOL    -0.3230 ****
  7 C2B     4.030613    2.018809    0.434255 CU    1 MOL    -0.0657 ****
  8 CC      3.493468    2.512731   -0.921160 CU    1 MOL    -0.0109 ****
  9 CD      2.065203    3.091919   -0.956330 CU    1 MOL     0.0816 ****
 10 CE      1.848515    4.251188   -0.012180 CM    1 MOL    -0.2354 ****
 11 CF      1.873984    5.542107   -0.301381 CM    1 MOL    -0.2653 ****
 12 CY      2.127270    6.176509   -1.647908 CU    1 MOL     0.1214 ****
 13 CH      0.859125    6.683336   -2.358189 CU    1 MOL    -0.0354 ****
 14 CI      0.125890    7.768550   -1.558445 CU    1 MOL    -0.0984 ****
 15 CJ     -1.066372    8.492242   -2.236254 CU    1 MOL     0.1300 ****
 16 C1K    -1.656639    9.475007   -1.211946 CU    1 MOL    -0.3561 ****
 17 N2K    -0.566320    9.232685   -3.386569 N     1 MOL    -0.7186 ****
 18 C15    -1.413654    9.850764   -4.260102 C     1 MOL     0.8537 ****
 19 C16    -0.792901   10.241933   -5.581638 CT    1 MOL    -0.3868 ****
 20 O2     -2.565108   10.070621   -4.005228 O     1 MOL    -0.6323 ****
 21 C3K    -2.064539    7.426640   -2.743087 C     1 MOL     0.7903 ****
 22 OF     -1.890072    6.888570   -3.803262 O     1 MOL    -0.6136 ****
 23 N3     -3.062232    7.062025   -1.909034 N     1 MOL    -0.5650 ****
 24 C18    -4.061465    6.106273   -2.340630 CT    1 MOL    -0.3231 ****
 25 N       4.306848    0.460877    2.230311 N     1 MOL    -0.7191 ****
 26 C19     4.202990   -0.646184    3.019804 C     1 MOL     0.8539 ****
 27 C20     5.219460   -0.735216    4.139172 CT    1 MOL    -0.3903 ****
 28 O4      3.362652   -1.483799    2.851363 O     1 MOL    -0.6290 ****
 29 H1     -0.403259    1.006147    0.000000 H1    1 MOL     0.1459 ****
 30 H2     -0.364960   -0.516002    0.875939 H1    1 MOL     0.1459 ****
 31 H3     -0.345658   -0.522086   -0.883346 H1    1 MOL     0.1459 ****
 32 H4      1.904244    0.070913   -0.879357 H     1 MOL     0.3572 ****
 33 HB1     3.664931   -0.408358   -1.003455 HC    1 MOL     0.0997 ****
 34 HB2     5.226342   -0.368402   -0.184889 HC    1 MOL     0.0997 ****
 35 HB3     3.955054   -1.467278    0.350795 HC    1 MOL     0.0997 ****
 36 HB4     5.116451    2.026402    0.370052 HC    1 MOL     0.0347 ****
 37 HB5     3.766995    2.729934    1.210842 HC    1 MOL     0.0347 ****
 38 HC1     4.170287    3.294450   -1.253499 HC    1 MOL     0.0243 ****
 39 HC2     3.563347    1.720221   -1.659008 HC    1 MOL     0.0243 ****
 40 HD1     1.344279    2.315645   -0.734898 HC    1 MOL     0.0171 ****
 41 HD2     1.869566    3.399373   -1.977619 HC    1 MOL     0.0171 ****
 42 HE      1.646903    3.977941    1.010954 HA    1 MOL     0.1313 ****
 43 HF      1.690760    6.232214    0.507286 HA    1 MOL     0.1359 ****
 44 HG1     2.627148    5.475747   -2.305571 HC    1 MOL     0.0092 ****
 45 HG2     2.815573    7.010065   -1.513682 HC    1 MOL     0.0092 ****
 46 HH1     1.154129    7.056175   -3.335091 HC    1 MOL     0.0318 ****
 47 HH2     0.196634    5.848608   -2.545710 HC    1 MOL     0.0318 ****
 48 HI1     0.832941    8.542554   -1.267701 HC    1 MOL     0.0435 ****
 49 HI2    -0.247986    7.329341   -0.641024 HC    1 MOL     0.0435 ****
 50 HK1    -0.917802   10.238516   -0.998042 HC    1 MOL     0.1066 ****
 51 HK2    -1.888237    8.975969   -0.276689 HC    1 MOL     0.1066 ****
 52 HK3    -2.543299    9.960992   -1.590618 HC    1 MOL     0.1066 ****
 53 HK      0.261999    8.868345   -3.798705 H     1 MOL     0.3529 ****
 54 H26    -1.386917   11.021372   -6.034055 HC    1 MOL     0.1047 ****
 55 H27    -0.798252    9.375563   -6.236238 HC    1 MOL     0.1047 ****
 56 H28     0.231617   10.579164   -5.467532 HC    1 MOL     0.1047 ****
 57 H29    -3.311871    7.678926   -1.172540 H     1 MOL     0.3615 ****
 58 H30    -4.691881    5.860429   -1.496203 H1    1 MOL     0.1469 ****
 59 H31    -3.577963    5.207009   -2.693015 H1    1 MOL     0.1469 ****
 60 H32    -4.676859    6.501404   -3.142450 H1    1 MOL     0.1469 ****
 61 H       5.115852    1.025733    2.364467 H     1 MOL     0.3570 ****
 62 H34     4.835550   -1.389578    4.908195 HC    1 MOL     0.1060 ****
 63 H35     5.447086    0.235465    4.565216 HC    1 MOL     0.1060 ****
 64 H36     6.139810   -1.160075    3.751548 HC    1 MOL     0.1060 ****
@<TRIPOS>BOND
    1     1     2 1
    2     1    29 1
    3     1    30 1
    4     1    31 1
    5     2     3 1
    6     2    32 1
    7     3     4 1
    8     3     5 1
    9     5     6 1
   10     5     7 1
   11     5    25 1
   12     6    33 1
   13     6    34 1
   14     6    35 1
   15     7     8 1
   16     7    36 1
   17     7    37 1
   18     8     9 1
   19     8    38 1
   20     8    39 1
   21     9    10 1
   22     9    40 1
   23     9    41 1
   24    10    11 1
   25    10    42 1
   26    11    12 1
   27    11    43 1
   28    12    13 1
   29    12    44 1
   30    12    45 1
   31    13    14 1
   32    13    46 1
   33    13    47 1
   34    14    15 1
   35    14    48 1
   36    14    49 1
   37    15    16 1
   38    15    17 1
   39    15    21 1
   40    16    50 1
   41    16    51 1
   42    16    52 1
   43    17    18 1
   44    17    53 1
   45    18    19 1
   46    18    20 1
   47    19    54 1
   48    19    55 1
   49    19    56 1
   50    21    22 1
   51    21    23 1
   52    23    24 1
   53    23    57 1
   54    24    58 1
   55    24    59 1
   56    24    60 1
   57    25    26 1
   58    25    61 1
   59    26    27 1
   60    26    28 1
   61    27    62 1
   62    27    63 1
   63    27    64 1
@<TRIPOS>SUBSTRUCTURE
      1  MOL              1 ****               0 ****  **** 
