@<TRIPOS>MOLECULE
MOL
   64    63     1     0     1 
SMALL
USER_CHARGES
@<TRIPOS>ATOM
  1 C1      0.000000    0.000000    0.000000 CT    1 MOL    -0.3208 ****
  2 N1      1.448187    0.000000    0.000000 N     1 MOL    -0.5622 ****
  3 C       2.123200    0.475920    1.072365 C     1 MOL     0.8053 ****
  4 O       1.590179    0.696732    2.124447 O     1 MOL    -0.6151 ****
  5 CA      3.650505    0.594143    0.921539 CX    1 MOL     0.0839 ****
  6 C1B     4.094300   -0.103968   -0.368239 CU    1 MOL    -0.3230 ****
  7 C2B     4.074607    2.087992    0.933973 CU    1 MOL    -0.0657 ****
  8 CC      3.529128    3.028423   -0.155833 CU    1 MOL    -0.0109 ****
  9 CD      2.123553    3.626139    0.053281 CU    1 MOL     0.0816 ****
 10 CE      1.970511    4.401340    1.340883 CM    1 MOL    -0.2354 ****
 11 CF      2.039251    5.712404    1.505637 CM    1 MOL    -0.2653 ****
 12 CY      2.289000    6.759016    0.446400 CU    1 MOL     0.1214 ****
 13 CH      1.026861    7.513491   -0.008943 CU    1 MOL    -0.0354 ****
 14 CI      0.351987    8.283085    1.134379 CU    1 MOL    -0.0984 ****
 15 CJ     -0.825413    9.228195    0.780626 CU    1 MOL     0.1300 ****
 16 C1K    -1.356775    9.821037    2.095786 CU    1 MOL    -0.3561 ****
 17 N2K    -0.321084   10.300679   -0.066110 N     1 MOL    -0.7186 ****
 18 C15    -1.161897   11.203044   -0.650771 C     1 MOL     0.8537 ****
 19 C16    -0.553784   12.001886   -1.780750 CT    1 MOL    -0.3868 ****
 20 O2     -2.298695   11.356407   -0.299611 O     1 MOL    -0.6323 ****
 21 C3K    -1.873598    8.427570   -0.025000 C     1 MOL     0.7903 ****
 22 OF     -1.741433    8.276974   -1.209813 O     1 MOL    -0.6136 ****
 23 N3     -2.867234    7.830242    0.667725 N     1 MOL    -0.5650 ****
 24 C18    -3.910762    7.107346   -0.029895 CT    1 MOL    -0.3231 ****
 25 N       4.327862    0.005149    2.085886 N     1 MOL    -0.7191 ****
 26 C19     4.198023   -1.300819    2.456372 C     1 MOL     0.8539 ****
 27 C20     5.232990   -1.794282    3.446047 CT    1 MOL    -0.3903 ****
 28 O4      3.323112   -2.006679    2.041121 O     1 MOL    -0.6290 ****
 29 H1     -0.403259    1.006147    0.000000 H1    1 MOL     0.1459 ****
 30 H2     -0.364960   -0.516002    0.875939 H1    1 MOL     0.1459 ****
 31 H3     -0.345658   -0.522086   -0.883346 H1    1 MOL     0.1459 ****
 32 H4      1.904244    0.070913   -0.879357 H     1 MOL     0.3572 ****
 33 HB1     3.587433    0.305465   -1.228695 HC    1 MOL     0.0997 ****
 34 HB2     5.165611    0.019714   -0.495650 HC    1 MOL     0.0997 ****
 35 HB3     3.864565   -1.158553   -0.323528 HC    1 MOL     0.0997 ****
 36 HB4     5.158408    2.085547    0.841288 HC    1 MOL     0.0347 ****
 37 HB5     3.854182    2.500212    1.913651 HC    1 MOL     0.0347 ****
 38 HC1     4.228324    3.856638   -0.225140 HC    1 MOL     0.0243 ****
 39 HC2     3.553685    2.532135   -1.120441 HC    1 MOL     0.0243 ****
 40 HD1     1.378239    2.842006    0.021568 HC    1 MOL     0.0171 ****
 41 HD2     1.918975    4.267866   -0.796524 HC    1 MOL     0.0171 ****
 42 HE      1.779553    3.802630    2.216780 HA    1 MOL     0.1313 ****
 43 HF      1.898998    6.091640    2.505772 HA    1 MOL     0.1359 ****
 44 HG1     2.748285    6.309293   -0.425536 HC    1 MOL     0.0092 ****
 45 HG2     3.011164    7.477084    0.832989 HC    1 MOL     0.0092 ****
 46 HH1     1.315864    8.187411   -0.810618 HC    1 MOL     0.0318 ****
 47 HH2     0.329352    6.811686   -0.446871 HC    1 MOL     0.0318 ****
 48 HI1     1.093806    8.891441    1.647352 HC    1 MOL     0.0435 ****
 49 HI2    -0.019558    7.569266    1.860166 HC    1 MOL     0.0435 ****
 50 HK1    -0.585167   10.444720    2.531930 HC    1 MOL     0.1066 ****
 51 HK2    -1.588090    9.040802    2.813496 HC    1 MOL     0.1066 ****
 52 HK3    -2.231813   10.432204    1.932924 HC    1 MOL     0.1066 ****
 53 HK      0.484167   10.074279   -0.603721 H     1 MOL     0.3529 ****
 54 H26    -1.126773   12.905511   -1.922902 HC    1 MOL     0.1047 ****
 55 H27    -0.605503   11.410054   -2.689697 HC    1 MOL     0.1047 ****
 56 H28     0.484956   12.250499   -1.592089 HC    1 MOL     0.1047 ****
 57 H29    -3.078102    8.167108    1.577321 H     1 MOL     0.3615 ****
 58 H30    -4.532727    6.607523    0.701034 H1    1 MOL     0.1469 ****
 59 H31    -3.469172    6.367758   -0.681534 H1    1 MOL     0.1469 ****
 60 H32    -4.526885    7.769053   -0.630138 H1    1 MOL     0.1469 ****
 61 H       5.160373    0.467159    2.377467 H     1 MOL     0.3570 ****
 62 H34     4.840195   -2.659637    3.959707 HC    1 MOL     0.1060 ****
 63 H35     5.506089   -1.033152    4.168299 HC    1 MOL     0.1060 ****
 64 H36     6.128380   -2.088563    2.908016 HC    1 MOL     0.1060 ****
@<TRIPOS>BOND
    1     1     2 1
    2     1    29 1
    3     1    30 1
    4     1    31 1
    5     2     3 1
    6     2    32 1
    7     3     4 1
    8     3     5 1
    9     5     6 1
   10     5     7 1
   11     5    25 1
   12     6    33 1
   13     6    34 1
   14     6    35 1
   15     7     8 1
   16     7    36 1
   17     7    37 1
   18     8     9 1
   19     8    38 1
   20     8    39 1
   21     9    10 1
   22     9    40 1
   23     9    41 1
   24    10    11 1
   25    10    42 1
   26    11    12 1
   27    11    43 1
   28    12    13 1
   29    12    44 1
   30    12    45 1
   31    13    14 1
   32    13    46 1
   33    13    47 1
   34    14    15 1
   35    14    48 1
   36    14    49 1
   37    15    16 1
   38    15    17 1
   39    15    21 1
   40    16    50 1
   41    16    51 1
   42    16    52 1
   43    17    18 1
   44    17    53 1
   45    18    19 1
   46    18    20 1
   47    19    54 1
   48    19    55 1
   49    19    56 1
   50    21    22 1
   51    21    23 1
   52    23    24 1
   53    23    57 1
   54    24    58 1
   55    24    59 1
   56    24    60 1
   57    25    26 1
   58    25    61 1
   59    26    27 1
   60    26    28 1
   61    27    62 1
   62    27    63 1
   63    27    64 1
@<TRIPOS>SUBSTRUCTURE
      1  MOL              1 ****               0 ****  **** 
