@<TRIPOS>MOLECULE
MOL
   64    63     1     0     1 
SMALL
USER_CHARGES
@<TRIPOS>ATOM
  1 C1      0.000000    0.000000    0.000000 CT    1 MOL    -0.3208 ****
  2 N1      1.448187    0.000000    0.000000 N     1 MOL    -0.5622 ****
  3 C       2.123200    0.475920    1.072365 C     1 MOL     0.8053 ****
  4 O       1.590179    0.696732    2.124447 O     1 MOL    -0.6151 ****
  5 CA      3.650505    0.594143    0.921539 CX    1 MOL     0.0839 ****
  6 C1B     3.989346    1.106513   -0.482208 CU    1 MOL    -0.3230 ****
  7 C2B     4.225353    1.527745    2.021329 CU    1 MOL    -0.0657 ****
  8 CC      3.752814    2.991593    2.080394 CU    1 MOL    -0.0109 ****
  9 CD      2.421197    3.284792    2.799748 CU    1 MOL     0.0816 ****
 10 CE      2.379333    2.809888    4.233272 CM    1 MOL    -0.2354 ****
 11 CF      2.585762    3.526428    5.326302 CM    1 MOL    -0.2653 ****
 12 CY      2.915644    4.997392    5.411137 CU    1 MOL     0.1214 ****
 13 CH      1.726687    5.891651    5.806416 CU    1 MOL    -0.0354 ****
 14 CI      1.161827    5.548148    7.191281 CU    1 MOL    -0.0984 ****
 15 CJ      0.079086    6.483802    7.788667 CU    1 MOL     0.1300 ****
 16 C1K    -0.356992    5.888374    9.137278 CU    1 MOL    -0.3561 ****
 17 N2K     0.669908    7.797182    8.006600 N     1 MOL    -0.7186 ****
 18 C15    -0.088047    8.865299    8.390900 C     1 MOL     0.8537 ****
 19 C16     0.571167   10.213295    8.208830 CT    1 MOL    -0.3868 ****
 20 O2     -1.194399    8.750730    8.840346 O     1 MOL    -0.6323 ****
 21 C3K    -1.064605    6.632137    6.759740 C     1 MOL     0.7903 ****
 22 OF     -0.977137    7.432440    5.867667 O     1 MOL    -0.6136 ****
 23 N3     -2.097137    5.766066    6.847945 N     1 MOL    -0.5650 ****
 24 C18    -3.225644    5.881921    5.947250 CT    1 MOL    -0.3231 ****
 25 N       4.291936   -0.706232    1.164481 N     1 MOL    -0.7191 ****
 26 C19     4.038169   -1.824829    0.426908 C     1 MOL     0.8539 ****
 27 C20     5.040791   -2.947469    0.595869 CT    1 MOL    -0.3903 ****
 28 O4      3.085895   -1.921437   -0.294189 O     1 MOL    -0.6290 ****
 29 H1     -0.403259    1.006147    0.000000 H1    1 MOL     0.1459 ****
 30 H2     -0.364960   -0.516002    0.875939 H1    1 MOL     0.1459 ****
 31 H3     -0.345658   -0.522086   -0.883346 H1    1 MOL     0.1459 ****
 32 H4      1.904244    0.070913   -0.879357 H     1 MOL     0.3572 ****
 33 HB1     3.506421    2.051134   -0.680721 HC    1 MOL     0.0997 ****
 34 HB2     5.064305    1.232210   -0.571103 HC    1 MOL     0.0997 ****
 35 HB3     3.654095    0.403302   -1.230558 HC    1 MOL     0.0997 ****
 36 HB4     5.300670    1.545018    1.858177 HC    1 MOL     0.0347 ****
 37 HB5     4.071929    1.056857    2.987252 HC    1 MOL     0.0347 ****
 38 HC1     4.531179    3.545122    2.597474 HC    1 MOL     0.0243 ****
 39 HC2     3.703219    3.406142    1.078863 HC    1 MOL     0.0243 ****
 40 HD1     1.599042    2.838953    2.255090 HC    1 MOL     0.0171 ****
 41 HD2     2.262905    4.356633    2.755772 HC    1 MOL     0.0171 ****
 42 HE      2.149308    1.764808    4.363697 HA    1 MOL     0.1313 ****
 43 HF      2.509185    3.014829    6.272961 HA    1 MOL     0.1359 ****
 44 HG1     3.305369    5.350485    4.464086 HC    1 MOL     0.0092 ****
 45 HG2     3.716575    5.131043    6.137251 HC    1 MOL     0.0092 ****
 46 HH1     2.063694    6.923929    5.771744 HC    1 MOL     0.0318 ****
 47 HH2     0.950700    5.806468    5.057137 HC    1 MOL     0.0318 ****
 48 HI1     1.974128    5.513703    7.914132 HC    1 MOL     0.0435 ****
 49 HI2     0.736824    4.551973    7.154417 HC    1 MOL     0.0435 ****
 50 HK1     0.484649    5.920992    9.819301 HC    1 MOL     0.1066 ****
 51 HK2    -0.649529    4.848821    9.031770 HC    1 MOL     0.1066 ****
 52 HK3    -1.168599    6.448600    9.576801 HC    1 MOL     0.1066 ****
 53 HK      1.434583    8.022731    7.412369 H     1 MOL     0.3529 ****
 54 H26     0.090349   10.931878    8.854983 HC    1 MOL     0.1047 ****
 55 H27     0.437288   10.527419    7.178041 HC    1 MOL     0.1047 ****
 56 H28     1.634132   10.180026    8.421856 HC    1 MOL     0.1047 ****
 57 H29    -2.250455    5.299581    7.710613 H     1 MOL     0.3615 ****
 58 H30    -3.877669    5.031809    6.099219 H1    1 MOL     0.1469 ****
 59 H31    -2.877855    5.880892    4.924671 H1    1 MOL     0.1469 ****
 60 H32    -3.785144    6.795975    6.118184 H1    1 MOL     0.1469 ****
 61 H       5.174123   -0.670521    1.624937 H     1 MOL     0.3570 ****
 62 H34     4.574042   -3.878547    0.309140 HC    1 MOL     0.1060 ****
 63 H35     5.407639   -3.020600    1.613526 HC    1 MOL     0.1060 ****
 64 H36     5.888152   -2.769689   -0.058480 HC    1 MOL     0.1060 ****
@<TRIPOS>BOND
    1     1     2 1
    2     1    29 1
    3     1    30 1
    4     1    31 1
    5     2     3 1
    6     2    32 1
    7     3     4 1
    8     3     5 1
    9     5     6 1
   10     5     7 1
   11     5    25 1
   12     6    33 1
   13     6    34 1
   14     6    35 1
   15     7     8 1
   16     7    36 1
   17     7    37 1
   18     8     9 1
   19     8    38 1
   20     8    39 1
   21     9    10 1
   22     9    40 1
   23     9    41 1
   24    10    11 1
   25    10    42 1
   26    11    12 1
   27    11    43 1
   28    12    13 1
   29    12    44 1
   30    12    45 1
   31    13    14 1
   32    13    46 1
   33    13    47 1
   34    14    15 1
   35    14    48 1
   36    14    49 1
   37    15    16 1
   38    15    17 1
   39    15    21 1
   40    16    50 1
   41    16    51 1
   42    16    52 1
   43    17    18 1
   44    17    53 1
   45    18    19 1
   46    18    20 1
   47    19    54 1
   48    19    55 1
   49    19    56 1
   50    21    22 1
   51    21    23 1
   52    23    24 1
   53    23    57 1
   54    24    58 1
   55    24    59 1
   56    24    60 1
   57    25    26 1
   58    25    61 1
   59    26    27 1
   60    26    28 1
   61    27    62 1
   62    27    63 1
   63    27    64 1
@<TRIPOS>SUBSTRUCTURE
      1  MOL              1 ****               0 ****  **** 
