@<TRIPOS>MOLECULE
MOL
   64    63     1     0     1 
SMALL
USER_CHARGES
@<TRIPOS>ATOM
  1 C1      0.000000    0.000000    0.000000 CT    1 MOL    -0.3208 ****
  2 N1      1.448187    0.000000    0.000000 N     1 MOL    -0.5622 ****
  3 C       2.123200    0.475920    1.072365 C     1 MOL     0.8053 ****
  4 O       1.590179    0.696732    2.124447 O     1 MOL    -0.6151 ****
  5 CA      3.650505    0.594143    0.921539 CX    1 MOL     0.0839 ****
  6 C1B     4.224932    1.371070    2.110766 CU    1 MOL    -0.3230 ****
  7 C2B     4.286725   -0.817630    0.804393 CU    1 MOL    -0.0657 ****
  8 CC      4.113397   -1.813702    1.965182 CU    1 MOL    -0.0109 ****
  9 CD      2.801833   -2.621743    2.024393 CU    1 MOL     0.0816 ****
 10 CE      2.521319   -3.430502    0.779605 CM    1 MOL    -0.2354 ****
 11 CF      2.755716   -4.718101    0.584914 CM    1 MOL    -0.2653 ****
 12 CY      3.363204   -5.698358    1.559495 CU    1 MOL     0.1214 ****
 13 CH      2.343722   -6.629447    2.240153 CU    1 MOL    -0.0354 ****
 14 CI      1.584752   -7.510028    1.238427 CU    1 MOL    -0.0984 ****
 15 CJ      0.656684   -8.618116    1.800100 CU    1 MOL     0.1300 ****
 16 C1K    -0.023575   -9.304744    0.604591 CU    1 MOL    -0.3561 ****
 17 N2K     1.473484   -9.588337    2.516368 N     1 MOL    -0.7186 ****
 18 C15     0.909953  -10.599409    3.239712 C     1 MOL     0.8537 ****
 19 C16     1.840688  -11.279135    4.217724 CT    1 MOL    -0.3868 ****
 20 O2     -0.236511  -10.929511    3.114031 O     1 MOL    -0.6323 ****
 21 C3K    -0.324383   -7.974570    2.806121 C     1 MOL     0.7903 ****
 22 OF      0.011113   -7.787776    3.944752 O     1 MOL    -0.6136 ****
 23 N3     -1.512954   -7.546158    2.328897 N     1 MOL    -0.5650 ****
 24 C18    -2.498663   -6.980340    3.226911 CT    1 MOL    -0.3231 ****
 25 N       3.990692    1.261903   -0.343293 N     1 MOL    -0.7191 ****
 26 C19     3.593791    2.527099   -0.661760 C     1 MOL     0.8539 ****
 27 C20     4.329028    3.157589   -1.826247 CT    1 MOL    -0.3903 ****
 28 O4      2.719164    3.097532   -0.073736 O     1 MOL    -0.6290 ****
 29 H1     -0.403259    1.006147    0.000000 H1    1 MOL     0.1459 ****
 30 H2     -0.364960   -0.516002    0.875939 H1    1 MOL     0.1459 ****
 31 H3     -0.345658   -0.522086   -0.883346 H1    1 MOL     0.1459 ****
 32 H4      1.904244    0.070913   -0.879357 H     1 MOL     0.3572 ****
 33 HB1     3.963492    0.902163    3.047093 HC    1 MOL     0.0997 ****
 34 HB2     5.306658    1.414046    2.025558 HC    1 MOL     0.0997 ****
 35 HB3     3.832892    2.377525    2.127458 HC    1 MOL     0.0997 ****
 36 HB4     5.354578   -0.648633    0.684595 HC    1 MOL     0.0347 ****
 37 HB5     3.945467   -1.273327   -0.119817 HC    1 MOL     0.0347 ****
 38 HC1     4.930626   -2.524537    1.884736 HC    1 MOL     0.0243 ****
 39 HC2     4.249115   -1.305009    2.913964 HC    1 MOL     0.0243 ****
 40 HD1     1.966278   -1.959980    2.212223 HC    1 MOL     0.0171 ****
 41 HD2     2.866646   -3.274290    2.888000 HC    1 MOL     0.0171 ****
 42 HE      2.074715   -2.881143   -0.033330 HA    1 MOL     0.1313 ****
 43 HF      2.483140   -5.129292   -0.374454 HA    1 MOL     0.1359 ****
 44 HG1     3.909251   -5.170817    2.332152 HC    1 MOL     0.0092 ****
 45 HG2     4.097254   -6.303705    1.029099 HC    1 MOL     0.0092 ****
 46 HH1     2.882362   -7.239303    2.960096 HC    1 MOL     0.0318 ****
 47 HH2     1.646024   -6.035641    2.815863 HC    1 MOL     0.0318 ****
 48 HI1     2.296551   -8.005864    0.581904 HC    1 MOL     0.0435 ****
 49 HI2     0.974804   -6.872183    0.609566 HC    1 MOL     0.0435 ****
 50 HK1     0.734365   -9.810029    0.017398 HC    1 MOL     0.1066 ****
 51 HK2    -0.506192   -8.579771   -0.042616 HC    1 MOL     0.1066 ****
 52 HK3    -0.746668  -10.039617    0.925272 HC    1 MOL     0.1066 ****
 53 HK      2.323801   -9.233786    2.890488 H     1 MOL     0.3529 ****
 54 H26     1.450827  -12.257291    4.454959 HC    1 MOL     0.1047 ****
 55 H27     1.877108  -10.688488    5.128183 HC    1 MOL     0.1047 ****
 56 H28     2.848435  -11.369336    3.826966 HC    1 MOL     0.1047 ****
 57 H29    -1.842809   -7.924878    1.472698 H     1 MOL     0.3615 ****
 58 H30    -3.319653   -6.592210    2.638479 H1    1 MOL     0.1469 ****
 59 H31    -2.056778   -6.172365    3.791305 H1    1 MOL     0.1469 ****
 60 H32    -2.878119   -7.719111    3.925470 H1    1 MOL     0.1469 ****
 61 H       4.811116    0.927842   -0.798107 H     1 MOL     0.3570 ****
 62 H34     3.716639    3.945136   -2.240641 HC    1 MOL     0.1060 ****
 63 H35     4.569228    2.436193   -2.599190 HC    1 MOL     0.1060 ****
 64 H36     5.256425    3.592965   -1.468221 HC    1 MOL     0.1060 ****
@<TRIPOS>BOND
    1     1     2 1
    2     1    29 1
    3     1    30 1
    4     1    31 1
    5     2     3 1
    6     2    32 1
    7     3     4 1
    8     3     5 1
    9     5     6 1
   10     5     7 1
   11     5    25 1
   12     6    33 1
   13     6    34 1
   14     6    35 1
   15     7     8 1
   16     7    36 1
   17     7    37 1
   18     8     9 1
   19     8    38 1
   20     8    39 1
   21     9    10 1
   22     9    40 1
   23     9    41 1
   24    10    11 1
   25    10    42 1
   26    11    12 1
   27    11    43 1
   28    12    13 1
   29    12    44 1
   30    12    45 1
   31    13    14 1
   32    13    46 1
   33    13    47 1
   34    14    15 1
   35    14    48 1
   36    14    49 1
   37    15    16 1
   38    15    17 1
   39    15    21 1
   40    16    50 1
   41    16    51 1
   42    16    52 1
   43    17    18 1
   44    17    53 1
   45    18    19 1
   46    18    20 1
   47    19    54 1
   48    19    55 1
   49    19    56 1
   50    21    22 1
   51    21    23 1
   52    23    24 1
   53    23    57 1
   54    24    58 1
   55    24    59 1
   56    24    60 1
   57    25    26 1
   58    25    61 1
   59    26    27 1
   60    26    28 1
   61    27    62 1
   62    27    63 1
   63    27    64 1
@<TRIPOS>SUBSTRUCTURE
      1  MOL              1 ****               0 ****  **** 
