@<TRIPOS>MOLECULE
MOL
   64    63     1     0     1 
SMALL
USER_CHARGES
@<TRIPOS>ATOM
  1 C1      0.000000    0.000000    0.000000 CT    1 MOL    -0.3208 ****
  2 N1      1.448187    0.000000    0.000000 N     1 MOL    -0.5622 ****
  3 C       2.123200    0.475920    1.072365 C     1 MOL     0.8053 ****
  4 O       1.590179    0.696732    2.124447 O     1 MOL    -0.6151 ****
  5 CA      3.650505    0.594143    0.921539 CX    1 MOL     0.0839 ****
  6 C1B     4.163716    1.749418    1.787447 CU    1 MOL    -0.3230 ****
  7 C2B     4.330718   -0.748448    1.304111 CU    1 MOL    -0.0657 ****
  8 CC      4.149058   -1.298011    2.730510 CU    1 MOL    -0.0109 ****
  9 CD      2.860183   -2.087524    3.034005 CU    1 MOL     0.0816 ****
 10 CE      2.643316   -3.280352    2.132668 CM    1 MOL    -0.2354 ****
 11 CF      2.920982   -4.547806    2.391932 CM    1 MOL    -0.2653 ****
 12 CY      3.524934   -5.115854    3.653803 CU    1 MOL     0.1214 ****
 13 CH      2.511459   -5.799295    4.589400 CU    1 MOL    -0.0354 ****
 14 CI      1.810849   -6.995497    3.931251 CU    1 MOL    -0.0984 ****
 15 CJ      0.897643   -7.882167    4.816981 CU    1 MOL     0.1300 ****
 16 C1K     0.276289   -8.958718    3.912322 CU    1 MOL    -0.3561 ****
 17 N2K     1.718720   -8.520347    5.836830 N     1 MOL    -0.7186 ****
 18 C15     1.161711   -9.247134    6.849045 C     1 MOL     0.8537 ****
 19 C16     2.079806   -9.519187    8.018614 CT    1 MOL    -0.3868 ****
 20 O2      0.029903   -9.643730    6.819650 O     1 MOL    -0.6323 ****
 21 C3K    -0.133441   -6.973643    5.524210 C     1 MOL     0.7903 ****
 22 OF      0.159753   -6.399374    6.538203 O     1 MOL    -0.6136 ****
 23 N3     -1.317956   -6.777944    4.905657 N     1 MOL    -0.5650 ****
 24 C18    -2.347960   -5.979270    5.537648 CT    1 MOL    -0.3231 ****
 25 N       4.011706    0.806176   -0.487718 N     1 MOL    -0.7191 ****
 26 C19     3.588824    1.872465   -1.225193 C     1 MOL     0.8539 ****
 27 C20     4.342558    2.098524   -2.519373 CT    1 MOL    -0.3903 ****
 28 O4      2.679624    2.574654   -0.883978 O     1 MOL    -0.6290 ****
 29 H1     -0.403259    1.006147    0.000000 H1    1 MOL     0.1459 ****
 30 H2     -0.364960   -0.516002    0.875939 H1    1 MOL     0.1459 ****
 31 H3     -0.345658   -0.522086   -0.883346 H1    1 MOL     0.1459 ****
 32 H4      1.904244    0.070913   -0.879357 H     1 MOL     0.3572 ****
 33 HB1     3.885994    1.615986    2.821855 HC    1 MOL     0.0997 ****
 34 HB2     5.245926    1.802164    1.714797 HC    1 MOL     0.0997 ****
 35 HB3     3.742403    2.686251    1.453135 HC    1 MOL     0.0997 ****
 36 HB4     5.396536   -0.589488    1.155832 HC    1 MOL     0.0347 ****
 37 HB5     4.032654   -1.503050    0.582991 HC    1 MOL     0.0347 ****
 38 HC1     4.988662   -1.962350    2.913096 HC    1 MOL     0.0243 ****
 39 HC2     4.239452   -0.493096    3.452531 HC    1 MOL     0.0243 ****
 40 HD1     2.000237   -1.433619    2.968689 HC    1 MOL     0.0171 ****
 41 HD2     2.916056   -2.405799    4.069096 HC    1 MOL     0.0171 ****
 42 HE      2.207365   -3.056455    1.172496 HA    1 MOL     0.1313 ****
 43 HF      2.691378   -5.269868    1.624032 HA    1 MOL     0.1359 ****
 44 HG1     4.030389   -4.337274    4.212187 HC    1 MOL     0.0092 ****
 45 HG2     4.292845   -5.836690    3.375770 HC    1 MOL     0.0092 ****
 46 HH1     3.044097   -6.108070    5.484570 HC    1 MOL     0.0318 ****
 47 HH2     1.778743   -5.072565    4.914703 HC    1 MOL     0.0318 ****
 48 HI1     2.557416   -7.656981    3.496957 HC    1 MOL     0.0435 ****
 49 HI2     1.203233   -6.632261    3.110756 HC    1 MOL     0.0435 ****
 50 HK1     1.066999   -9.603830    3.547370 HC    1 MOL     0.1066 ****
 51 HK2    -0.206045   -8.514942    3.047569 HC    1 MOL     0.1066 ****
 52 HK3    -0.435182   -9.568410    4.448815 HC    1 MOL     0.1066 ****
 53 HK      2.545969   -8.027857    6.085473 H     1 MOL     0.3529 ****
 54 H26     1.710972  -10.373158    8.566114 HC    1 MOL     0.1047 ****
 55 H27     2.069858   -8.654003    8.674726 HC    1 MOL     0.1047 ****
 56 H28     3.101775   -9.698006    7.702411 HC    1 MOL     0.1047 ****
 57 H29    -1.609040   -7.436700    4.222561 H     1 MOL     0.3615 ****
 58 H30    -3.160499   -5.845119    4.835717 H1    1 MOL     0.1469 ****
 59 H31    -1.947987   -5.011619    5.802788 H1    1 MOL     0.1469 ****
 60 H32    -2.728144   -6.451466    6.437784 H1    1 MOL     0.1469 ****
 61 H       4.855637    0.369268   -0.785108 H     1 MOL     0.3570 ****
 62 H34     3.721283    2.675079   -3.189131 HC    1 MOL     0.1060 ****
 63 H35     4.628231    1.167576   -2.996109 HC    1 MOL     0.1060 ****
 64 H36     5.244995    2.664477   -2.311754 HC    1 MOL     0.1060 ****
@<TRIPOS>BOND
    1     1     2 1
    2     1    29 1
    3     1    30 1
    4     1    31 1
    5     2     3 1
    6     2    32 1
    7     3     4 1
    8     3     5 1
    9     5     6 1
   10     5     7 1
   11     5    25 1
   12     6    33 1
   13     6    34 1
   14     6    35 1
   15     7     8 1
   16     7    36 1
   17     7    37 1
   18     8     9 1
   19     8    38 1
   20     8    39 1
   21     9    10 1
   22     9    40 1
   23     9    41 1
   24    10    11 1
   25    10    42 1
   26    11    12 1
   27    11    43 1
   28    12    13 1
   29    12    44 1
   30    12    45 1
   31    13    14 1
   32    13    46 1
   33    13    47 1
   34    14    15 1
   35    14    48 1
   36    14    49 1
   37    15    16 1
   38    15    17 1
   39    15    21 1
   40    16    50 1
   41    16    51 1
   42    16    52 1
   43    17    18 1
   44    17    53 1
   45    18    19 1
   46    18    20 1
   47    19    54 1
   48    19    55 1
   49    19    56 1
   50    21    22 1
   51    21    23 1
   52    23    24 1
   53    23    57 1
   54    24    58 1
   55    24    59 1
   56    24    60 1
   57    25    26 1
   58    25    61 1
   59    26    27 1
   60    26    28 1
   61    27    62 1
   62    27    63 1
   63    27    64 1
@<TRIPOS>SUBSTRUCTURE
      1  MOL              1 ****               0 ****  **** 
