@<TRIPOS>MOLECULE
MOL
   64    63     1     0     1 
SMALL
USER_CHARGES
@<TRIPOS>ATOM
  1 C1      0.000000    0.000000    0.000000 CT    1 MOL    -0.3208 ****
  2 N1      1.448187    0.000000    0.000000 N     1 MOL    -0.5622 ****
  3 C       2.123200    0.475920    1.072365 C     1 MOL     0.8053 ****
  4 O       1.590179    0.696732    2.124447 O     1 MOL    -0.6151 ****
  5 CA      3.650505    0.594143    0.921539 CX    1 MOL     0.0839 ****
  6 C1B     4.186783   -0.623289    0.161205 CU    1 MOL    -0.3230 ****
  7 C2B     4.015151    1.920299    0.200466 CU    1 MOL    -0.0657 ****
  8 CC      3.490379    2.163620   -1.226083 CU    1 MOL    -0.0109 ****
  9 CD      2.053787    2.702049   -1.377522 CU    1 MOL     0.0816 ****
 10 CE      1.804781    4.002440   -0.650019 CM    1 MOL    -0.2354 ****
 11 CF      1.814058    5.224529   -1.157136 CM    1 MOL    -0.2653 ****
 12 CY      2.077172    5.622104   -2.589777 CU    1 MOL     0.1214 ****
 13 CH      0.811811    5.975933   -3.391794 CU    1 MOL    -0.0354 ****
 14 CI      0.049693    7.169135   -2.799882 CU    1 MOL    -0.0984 ****
 15 CJ     -1.143723    7.743524   -3.606406 CU    1 MOL     0.1300 ****
 16 C1K    -1.764609    8.877088   -2.773950 CU    1 MOL    -0.3561 ****
 17 N2K    -0.638490    8.283807   -4.861143 N     1 MOL    -0.7186 ****
 18 C15    -1.482485    8.726746   -5.838146 C     1 MOL     0.8537 ****
 19 C16    -0.848503    8.895741   -7.199878 CT    1 MOL    -0.3868 ****
 20 O2     -2.640929    8.966242   -5.638669 O     1 MOL    -0.6323 ****
 21 C3K    -2.117249    6.588608   -3.933729 C     1 MOL     0.7903 ****
 22 OF     -1.918586    5.879290   -4.883114 O     1 MOL    -0.6136 ****
 23 N3     -3.121281    6.354978   -3.061194 N     1 MOL    -0.5650 ****
 24 C18    -4.098730    5.321189   -3.333364 CT    1 MOL    -0.3231 ****
 25 N       4.289419    0.700166    2.241379 N     1 MOL    -0.7191 ****
 26 C19     4.191445   -0.256127    3.208632 C     1 MOL     0.8539 ****
 27 C20     5.192504   -0.132606    4.338562 CT    1 MOL    -0.3903 ****
 28 O4      3.367081   -1.125365    3.177174 O     1 MOL    -0.6290 ****
 29 H1     -0.403259    1.006147    0.000000 H1    1 MOL     0.1459 ****
 30 H2     -0.364960   -0.516002    0.875939 H1    1 MOL     0.1459 ****
 31 H3     -0.345658   -0.522086   -0.883346 H1    1 MOL     0.1459 ****
 32 H4      1.904244    0.070913   -0.879357 H     1 MOL     0.3572 ****
 33 HB1     3.709341   -0.724406   -0.801477 HC    1 MOL     0.0997 ****
 34 HB2     5.257625   -0.515736    0.016402 HC    1 MOL     0.0997 ****
 35 HB3     3.996125   -1.528883    0.718408 HC    1 MOL     0.0997 ****
 36 HB4     5.101564    1.936454    0.148798 HC    1 MOL     0.0347 ****
 37 HB5     3.728815    2.749608    0.839636 HC    1 MOL     0.0347 ****
 38 HC1     4.159567    2.888610   -1.680172 HC    1 MOL     0.0243 ****
 39 HC2     3.583739    1.257304   -1.815362 HC    1 MOL     0.0243 ****
 40 HD1     1.342063    1.962525   -1.034133 HC    1 MOL     0.0171 ****
 41 HD2     1.868450    2.825457   -2.438773 HC    1 MOL     0.0171 ****
 42 HE      1.592393    3.905821    0.402440 HA    1 MOL     0.1313 ****
 43 HF      1.607954    6.040123   -0.481792 HA    1 MOL     0.1359 ****
 44 HG1     2.597787    4.827771   -3.110796 HC    1 MOL     0.0092 ****
 45 HG2     2.750107    6.478692   -2.593122 HC    1 MOL     0.0092 ****
 46 HH1     1.115305    6.180296   -4.414780 HC    1 MOL     0.0318 ****
 47 HH2     0.165490    5.109485   -3.440433 HC    1 MOL     0.0318 ****
 48 HI1     0.739997    7.994359   -2.638575 HC    1 MOL     0.0435 ****
 49 HI2    -0.330722    6.887729   -1.824975 HC    1 MOL     0.0435 ****
 50 HK1    -1.041221    9.679323   -2.686140 HC    1 MOL     0.1066 ****
 51 HK2    -2.002094    8.542414   -1.769473 HC    1 MOL     0.1066 ****
 52 HK3    -2.653156    9.274420   -3.241230 HC    1 MOL     0.1066 ****
 53 HK      0.201517    7.869060   -5.194438 H     1 MOL     0.3529 ****
 54 H26    -1.448037    9.574716   -7.786916 HC    1 MOL     0.1047 ****
 55 H27    -0.830418    7.929648   -7.695319 HC    1 MOL     0.1047 ****
 56 H28     0.168735    9.266145   -7.133480 HC    1 MOL     0.1047 ****
 57 H29    -3.391555    7.084838   -2.445104 H     1 MOL     0.3615 ****
 58 H30    -4.737609    5.212997   -2.466733 H1    1 MOL     0.1469 ****
 59 H31    -3.595861    4.383618   -3.519669 H1    1 MOL     0.1469 ****
 60 H32    -4.708367    5.561109   -4.198543 H1    1 MOL     0.1469 ****
 61 H       5.087288    1.294291    2.285724 H     1 MOL     0.3570 ****
 62 H34     4.807669   -0.651649    5.204281 HC    1 MOL     0.1060 ****
 63 H35     5.398374    0.900910    4.593539 HC    1 MOL     0.1060 ****
 64 H36     6.125117   -0.601065    4.040937 HC    1 MOL     0.1060 ****
@<TRIPOS>BOND
    1     1     2 1
    2     1    29 1
    3     1    30 1
    4     1    31 1
    5     2     3 1
    6     2    32 1
    7     3     4 1
    8     3     5 1
    9     5     6 1
   10     5     7 1
   11     5    25 1
   12     6    33 1
   13     6    34 1
   14     6    35 1
   15     7     8 1
   16     7    36 1
   17     7    37 1
   18     8     9 1
   19     8    38 1
   20     8    39 1
   21     9    10 1
   22     9    40 1
   23     9    41 1
   24    10    11 1
   25    10    42 1
   26    11    12 1
   27    11    43 1
   28    12    13 1
   29    12    44 1
   30    12    45 1
   31    13    14 1
   32    13    46 1
   33    13    47 1
   34    14    15 1
   35    14    48 1
   36    14    49 1
   37    15    16 1
   38    15    17 1
   39    15    21 1
   40    16    50 1
   41    16    51 1
   42    16    52 1
   43    17    18 1
   44    17    53 1
   45    18    19 1
   46    18    20 1
   47    19    54 1
   48    19    55 1
   49    19    56 1
   50    21    22 1
   51    21    23 1
   52    23    24 1
   53    23    57 1
   54    24    58 1
   55    24    59 1
   56    24    60 1
   57    25    26 1
   58    25    61 1
   59    26    27 1
   60    26    28 1
   61    27    62 1
   62    27    63 1
   63    27    64 1
@<TRIPOS>SUBSTRUCTURE
      1  MOL              1 ****               0 ****  **** 
