@<TRIPOS>MOLECULE
MOL
   64    63     1     0     1 
SMALL
USER_CHARGES
@<TRIPOS>ATOM
  1 C1      0.000000    0.000000    0.000000 CT    1 MOL    -0.3208 ****
  2 N1      1.448187    0.000000    0.000000 N     1 MOL    -0.5622 ****
  3 C       2.123200    0.475920    1.072365 C     1 MOL     0.8053 ****
  4 O       1.590179    0.696732    2.124447 O     1 MOL    -0.6151 ****
  5 CA      3.650505    0.594143    0.921539 CX    1 MOL     0.0839 ****
  6 C1B     4.194860    1.574539    1.965734 CU    1 MOL    -0.3230 ****
  7 C2B     4.310697   -0.804917    1.057107 CU    1 MOL    -0.0657 ****
  8 CC      4.136009   -1.589228    2.370109 CU    1 MOL    -0.0109 ****
  9 CD      2.836690   -2.398705    2.552190 CU    1 MOL     0.0816 ****
 10 CE      2.587507   -3.414678    1.462244 CM    1 MOL    -0.2354 ****
 11 CF      2.845150   -4.712094    1.495259 CM    1 MOL    -0.2653 ****
 12 CY      3.453602   -5.498701    2.631388 CU    1 MOL     0.1214 ****
 13 CH      2.439042   -6.317057    3.450245 CU    1 MOL    -0.0354 ****
 14 CI      1.709053   -7.370611    2.606412 CU    1 MOL    -0.0984 ****
 15 CJ      0.790454   -8.382120    3.339674 CU    1 MOL     0.1300 ****
 16 C1K     0.138953   -9.276585    2.272468 CU    1 MOL    -0.3561 ****
 17 N2K     1.611835   -9.199515    4.222130 N     1 MOL    -0.7186 ****
 18 C15     1.053754  -10.081010    5.102226 C     1 MOL     0.8537 ****
 19 C16     1.980560  -10.565160    6.193755 CT    1 MOL    -0.3868 ****
 20 O2     -0.085343  -10.448601    5.021753 O     1 MOL    -0.6323 ****
 21 C3K    -0.215490   -7.592901    4.207969 C     1 MOL     0.7903 ****
 22 OF      0.100098   -7.206778    5.301240 O     1 MOL    -0.6136 ****
 23 N3     -1.403505   -7.274729    3.649966 N     1 MOL    -0.5650 ****
 24 C18    -2.411257   -6.580746    4.425224 CT    1 MOL    -0.3231 ****
 25 N       3.998761    1.040218   -0.435357 N     1 MOL    -0.7191 ****
 26 C19     3.586609    2.224259   -0.971874 C     1 MOL     0.8539 ****
 27 C20     4.328925    2.658083   -2.218823 CT    1 MOL    -0.3903 ****
 28 O4      2.694431    2.871430   -0.501419 O     1 MOL    -0.6290 ****
 29 H1     -0.403259    1.006147    0.000000 H1    1 MOL     0.1459 ****
 30 H2     -0.364960   -0.516002    0.875939 H1    1 MOL     0.1459 ****
 31 H3     -0.345658   -0.522086   -0.883346 H1    1 MOL     0.1459 ****
 32 H4      1.904244    0.070913   -0.879357 H     1 MOL     0.3572 ****
 33 HB1     3.927046    1.269183    2.965717 HC    1 MOL     0.0997 ****
 34 HB2     5.276911    1.621854    1.887227 HC    1 MOL     0.0997 ****
 35 HB3     3.786705    2.561544    1.804001 HC    1 MOL     0.0997 ****
 36 HB4     5.377393   -0.639694    0.922640 HC    1 MOL     0.0347 ****
 37 HB5     3.990437   -1.419067    0.221323 HC    1 MOL     0.0347 ****
 38 HC1     4.965509   -2.288327    2.423122 HC    1 MOL     0.0243 ****
 39 HC2     4.249573   -0.922387    3.218520 HC    1 MOL     0.0243 ****
 40 HD1     1.988055   -1.729779    2.613188 HC    1 MOL     0.0171 ****
 41 HD2     2.899042   -2.891520    3.516078 HC    1 MOL     0.0171 ****
 42 HE      2.144340   -3.021705    0.561528 HA    1 MOL     0.1313 ****
 43 HF      2.593371   -5.287215    0.617988 HA    1 MOL     0.1359 ****
 44 HG1     3.979709   -4.836166    3.307942 HC    1 MOL     0.0092 ****
 45 HG2     4.204935   -6.172891    2.222048 HC    1 MOL     0.0092 ****
 46 HH1     2.976560   -6.783952    4.270889 HC    1 MOL     0.0318 ****
 47 HH2     1.723563   -5.645770    3.906639 HC    1 MOL     0.0318 ****
 48 HI1     2.438273   -7.959065    2.053697 HC    1 MOL     0.0435 ****
 49 HI2     1.098450   -6.861762    1.869807 HC    1 MOL     0.0435 ****
 50 HK1     0.913426   -9.861570    1.790216 HC    1 MOL     0.1066 ****
 51 HK2    -0.345458   -8.682769    1.504282 HC    1 MOL     0.1066 ****
 52 HK3    -0.577067   -9.958284    2.706449 HC    1 MOL     0.1066 ****
 53 HK      2.450788   -8.770449    4.539576 H     1 MOL     0.3529 ****
 54 H26     1.602788  -11.494780    6.591442 HC    1 MOL     0.1047 ****
 55 H27     1.994119   -9.826006    6.989111 HC    1 MOL     0.1047 ****
 56 H28     2.995289  -10.702967    5.836380 HC    1 MOL     0.1047 ****
 57 H29    -1.714593   -7.801146    2.868033 H     1 MOL     0.3615 ****
 58 H30    -3.229491   -6.314715    3.768990 H1    1 MOL     0.1469 ****
 59 H31    -1.990649   -5.679765    4.847062 H1    1 MOL     0.1469 ****
 60 H32    -2.789257   -7.194976    5.236144 H1    1 MOL     0.1469 ****
 61 H       4.831026    0.647800   -0.816001 H     1 MOL     0.3570 ****
 62 H34     3.710330    3.351256   -2.770027 HC    1 MOL     0.1060 ****
 63 H35     4.591958    1.818859   -2.852911 HC    1 MOL     0.1060 ****
 64 H36     5.243896    3.165383   -1.930249 HC    1 MOL     0.1060 ****
@<TRIPOS>BOND
    1     1     2 1
    2     1    29 1
    3     1    30 1
    4     1    31 1
    5     2     3 1
    6     2    32 1
    7     3     4 1
    8     3     5 1
    9     5     6 1
   10     5     7 1
   11     5    25 1
   12     6    33 1
   13     6    34 1
   14     6    35 1
   15     7     8 1
   16     7    36 1
   17     7    37 1
   18     8     9 1
   19     8    38 1
   20     8    39 1
   21     9    10 1
   22     9    40 1
   23     9    41 1
   24    10    11 1
   25    10    42 1
   26    11    12 1
   27    11    43 1
   28    12    13 1
   29    12    44 1
   30    12    45 1
   31    13    14 1
   32    13    46 1
   33    13    47 1
   34    14    15 1
   35    14    48 1
   36    14    49 1
   37    15    16 1
   38    15    17 1
   39    15    21 1
   40    16    50 1
   41    16    51 1
   42    16    52 1
   43    17    18 1
   44    17    53 1
   45    18    19 1
   46    18    20 1
   47    19    54 1
   48    19    55 1
   49    19    56 1
   50    21    22 1
   51    21    23 1
   52    23    24 1
   53    23    57 1
   54    24    58 1
   55    24    59 1
   56    24    60 1
   57    25    26 1
   58    25    61 1
   59    26    27 1
   60    26    28 1
   61    27    62 1
   62    27    63 1
   63    27    64 1
@<TRIPOS>SUBSTRUCTURE
      1  MOL              1 ****               0 ****  **** 
