@<TRIPOS>MOLECULE
MOL
   64    63     1     0     1 
SMALL
USER_CHARGES
@<TRIPOS>ATOM
  1 C1      0.000000    0.000000    0.000000 CT    1 MOL    -0.3208 ****
  2 N1      1.448187    0.000000    0.000000 N     1 MOL    -0.5622 ****
  3 C       2.123200    0.475920    1.072365 C     1 MOL     0.8053 ****
  4 O       1.590179    0.696732    2.124447 O     1 MOL    -0.6151 ****
  5 CA      3.650505    0.594143    0.921539 CX    1 MOL     0.0839 ****
  6 C1B     4.040963    0.363335   -0.542057 CU    1 MOL    -0.3230 ****
  7 C2B     4.131393    1.981944    1.425877 CU    1 MOL    -0.0657 ****
  8 CC      3.600025    3.252098    0.737407 CU    1 MOL    -0.0109 ****
  9 CD      2.222808    3.783567    1.181764 CU    1 MOL     0.0816 ****
 10 CE      2.125726    4.079174    2.660097 CM    1 MOL    -0.2354 ****
 11 CF      2.247725    5.253664    3.257129 CM    1 MOL    -0.2653 ****
 12 CY      2.515512    6.590250    2.607835 CU    1 MOL     0.1214 ****
 13 CH      1.274013    7.490723    2.475940 CU    1 MOL    -0.0354 ****
 14 CI      0.652428    7.845177    3.833478 CU    1 MOL    -0.0984 ****
 15 CJ     -0.495073    8.887883    3.858990 CU    1 MOL     0.1300 ****
 16 C1K    -0.976510    9.013640    5.313588 CU    1 MOL    -0.3561 ****
 17 N2K     0.032377   10.169218    3.410094 N     1 MOL    -0.7186 ****
 18 C15    -0.785192   11.240474    3.193187 C     1 MOL     0.8537 ****
 19 C16    -0.170262   12.357822    2.381891 CT    1 MOL    -0.3868 ****
 20 O2     -1.907917   11.298187    3.611875 O     1 MOL    -0.6323 ****
 21 C3K    -1.589228    8.439330    2.863826 C     1 MOL     0.7903 ****
 22 OF     -1.487102    8.696556    1.694496 O     1 MOL    -0.6136 ****
 23 N3     -2.590563    7.671148    3.344665 N     1 MOL    -0.5650 ****
 24 C18    -3.674899    7.258827    2.477250 CT    1 MOL    -0.3231 ****
 25 N       4.328542   -0.374787    1.794963 N     1 MOL    -0.7191 ****
 26 C19     4.156615   -1.724602    1.704893 C     1 MOL     0.8539 ****
 27 C20     5.192005   -2.554714    2.434964 CT    1 MOL    -0.3903 ****
 28 O4      3.247150   -2.221737    1.103337 O     1 MOL    -0.6290 ****
 29 H1     -0.403259    1.006147    0.000000 H1    1 MOL     0.1459 ****
 30 H2     -0.364960   -0.516002    0.875939 H1    1 MOL     0.1459 ****
 31 H3     -0.345658   -0.522086   -0.883346 H1    1 MOL     0.1459 ****
 32 H4      1.904244    0.070913   -0.879357 H     1 MOL     0.3572 ****
 33 HB1     3.532614    1.055273   -1.196073 HC    1 MOL     0.0997 ****
 34 HB2     5.113386    0.491920   -0.654364 HC    1 MOL     0.0997 ****
 35 HB3     3.772166   -0.636575   -0.850038 HC    1 MOL     0.0997 ****
 36 HB4     5.212197    1.979801    1.303075 HC    1 MOL     0.0347 ****
 37 HB5     3.946874    2.042918    2.493826 HC    1 MOL     0.0347 ****
 38 HC1     4.328715    4.033994    0.930460 HC    1 MOL     0.0243 ****
 39 HC2     3.585962    3.112640   -0.338570 HC    1 MOL     0.0243 ****
 40 HD1     1.447661    3.078772    0.910147 HC    1 MOL     0.0171 ****
 41 HD2     2.025537    4.681512    0.606775 HC    1 MOL     0.0171 ****
 42 HE      1.930002    3.224238    3.286908 HA    1 MOL     0.1313 ****
 43 HF      2.142464    5.274361    4.330559 HA    1 MOL     0.1359 ****
 44 HG1     2.939437    6.450503    1.620808 HC    1 MOL     0.0092 ****
 45 HG2     3.272254    7.113018    3.191487 HC    1 MOL     0.0092 ****
 46 HH1     1.572070    8.388303    1.941257 HC    1 MOL     0.0318 ****
 47 HH2     0.541476    6.999975    1.848736 HC    1 MOL     0.0318 ****
 48 HI1     1.427204    8.221295    4.498151 HC    1 MOL     0.0435 ****
 49 HI2     0.268838    6.938265    4.285937 HC    1 MOL     0.0435 ****
 50 HK1    -0.172956    9.429412    5.910258 HC    1 MOL     0.1066 ****
 51 HK2    -1.222696    8.042983    5.731437 HC    1 MOL     0.1066 ****
 52 HK3    -1.830762    9.668812    5.395697 HC    1 MOL     0.1066 ****
 53 HK      0.817278   10.115793    2.801990 H     1 MOL     0.3529 ****
 54 H26    -0.711180   13.272147    2.572884 HC    1 MOL     0.1047 ****
 55 H27    -0.263034   12.111838    1.328321 HC    1 MOL     0.1047 ****
 56 H28     0.880831   12.497383    2.610163 HC    1 MOL     0.1047 ****
 57 H29    -2.769836    7.684823    4.320874 H     1 MOL     0.3615 ****
 58 H30    -4.300416    6.558576    3.015114 H1    1 MOL     0.1469 ****
 59 H31    -3.275204    6.772244    1.599693 H1    1 MOL     0.1469 ****
 60 H32    -4.277478    8.102650    2.156912 H1    1 MOL     0.1469 ****
 61 H       5.183832   -0.063633    2.198956 H     1 MOL     0.3570 ****
 62 H34     4.777081   -3.531379    2.637291 HC    1 MOL     0.1060 ****
 63 H35     5.508592   -2.092543    3.363253 HC    1 MOL     0.1060 ****
 64 H36     6.064364   -2.674414    1.800564 HC    1 MOL     0.1060 ****
@<TRIPOS>BOND
    1     1     2 1
    2     1    29 1
    3     1    30 1
    4     1    31 1
    5     2     3 1
    6     2    32 1
    7     3     4 1
    8     3     5 1
    9     5     6 1
   10     5     7 1
   11     5    25 1
   12     6    33 1
   13     6    34 1
   14     6    35 1
   15     7     8 1
   16     7    36 1
   17     7    37 1
   18     8     9 1
   19     8    38 1
   20     8    39 1
   21     9    10 1
   22     9    40 1
   23     9    41 1
   24    10    11 1
   25    10    42 1
   26    11    12 1
   27    11    43 1
   28    12    13 1
   29    12    44 1
   30    12    45 1
   31    13    14 1
   32    13    46 1
   33    13    47 1
   34    14    15 1
   35    14    48 1
   36    14    49 1
   37    15    16 1
   38    15    17 1
   39    15    21 1
   40    16    50 1
   41    16    51 1
   42    16    52 1
   43    17    18 1
   44    17    53 1
   45    18    19 1
   46    18    20 1
   47    19    54 1
   48    19    55 1
   49    19    56 1
   50    21    22 1
   51    21    23 1
   52    23    24 1
   53    23    57 1
   54    24    58 1
   55    24    59 1
   56    24    60 1
   57    25    26 1
   58    25    61 1
   59    26    27 1
   60    26    28 1
   61    27    62 1
   62    27    63 1
   63    27    64 1
@<TRIPOS>SUBSTRUCTURE
      1  MOL              1 ****               0 ****  **** 
