@<TRIPOS>MOLECULE
MOL
   64    63     1     0     1 
SMALL
USER_CHARGES
@<TRIPOS>ATOM
  1 C1      0.000000    0.000000    0.000000 CT    1 MOL    -0.3208 ****
  2 N1      1.448187    0.000000    0.000000 N     1 MOL    -0.5622 ****
  3 C       2.123200    0.475920    1.072365 C     1 MOL     0.8053 ****
  4 O       1.590179    0.696732    2.124447 O     1 MOL    -0.6151 ****
  5 CA      3.650505    0.594143    0.921539 CX    1 MOL     0.0839 ****
  6 C1B     4.102006    1.993176    1.353622 CU    1 MOL    -0.3230 ****
  7 C2B     4.356613   -0.512379    1.751371 CU    1 MOL    -0.0657 ****
  8 CC      4.145182   -0.552504    3.275615 CU    1 MOL    -0.0109 ****
  9 CD      2.870590   -1.240945    3.802969 CU    1 MOL     0.0816 ****
 10 CE      2.717380   -2.675994    3.356382 CM    1 MOL    -0.2354 ****
 11 CF      3.023107   -3.769015    4.036523 CM    1 MOL    -0.2653 ****
 12 CY      3.602374   -3.852337    5.428379 CU    1 MOL     0.1214 ****
 13 CH      2.579547   -4.216347    6.519656 CU    1 MOL    -0.0354 ****
 14 CI      1.935330   -5.590584    6.293006 CU    1 MOL    -0.0984 ****
 15 CJ      1.020158   -6.158720    7.408501 CU    1 MOL     0.1300 ****
 16 C1K     0.459583   -7.501002    6.911023 CU    1 MOL    -0.3561 ****
 17 N2K     1.826152   -6.381717    8.601052 N     1 MOL    -0.7186 ****
 18 C15     1.258155   -6.743113    9.788415 C     1 MOL     0.8537 ****
 19 C16     2.145678   -6.567495   10.999309 CT    1 MOL    -0.3868 ****
 20 O2      0.139818   -7.169026    9.872449 O     1 MOL    -0.6323 ****
 21 C3K    -0.058959   -5.104272    7.743721 C     1 MOL     0.7903 ****
 22 OF      0.184774   -4.209611    8.507988 O     1 MOL    -0.6136 ****
 23 N3     -1.228150   -5.175077    7.071441 N     1 MOL    -0.5650 ****
 24 C18    -2.300594   -4.249352    7.373266 CT    1 MOL    -0.3231 ****
 25 N       4.050519    0.329624   -0.468227 N     1 MOL    -0.7191 ****
 26 C19     3.620895    1.065938   -1.532621 C     1 MOL     0.8539 ****
 27 C20     4.408972    0.868563   -2.810940 CT    1 MOL    -0.3903 ****
 28 O4      2.681276    1.807020   -1.468953 O     1 MOL    -0.6290 ****
 29 H1     -0.403259    1.006147    0.000000 H1    1 MOL     0.1459 ****
 30 H2     -0.364960   -0.516002    0.875939 H1    1 MOL     0.1459 ****
 31 H3     -0.345658   -0.522086   -0.883346 H1    1 MOL     0.1459 ****
 32 H4      1.904244    0.070913   -0.879357 H     1 MOL     0.3572 ****
 33 HB1     3.795165    2.207727    2.365921 HC    1 MOL     0.0997 ****
 34 HB2     5.184014    2.059379    1.289471 HC    1 MOL     0.0997 ****
 35 HB3     3.664738    2.744489    0.712333 HC    1 MOL     0.0997 ****
 36 HB4     5.421602   -0.372585    1.579679 HC    1 MOL     0.0347 ****
 37 HB5     4.103819   -1.477492    1.323663 HC    1 MOL     0.0347 ****
 38 HC1     4.997345   -1.083139    3.690179 HC    1 MOL     0.0243 ****
 39 HC2     4.189016    0.452297    3.682835 HC    1 MOL     0.0243 ****
 40 HD1     1.994638   -0.681151    3.501802 HC    1 MOL     0.0171 ****
 41 HD2     2.902355   -1.187212    4.885530 HC    1 MOL     0.0171 ****
 42 HE      2.306214   -2.807541    2.368580 HA    1 MOL     0.1313 ****
 43 HF      2.839272   -4.716783    3.555170 HA    1 MOL     0.1359 ****
 44 HG1     4.066900   -2.911932    5.699154 HC    1 MOL     0.0092 ****
 45 HG2     4.399345   -4.594920    5.427572 HC    1 MOL     0.0092 ****
 46 HH1     3.091853   -4.182935    7.477153 HC    1 MOL     0.0318 ****
 47 HH2     1.816049   -3.450862    6.563626 HC    1 MOL     0.0318 ****
 48 HI1     2.714282   -6.331145    6.124667 HC    1 MOL     0.0435 ****
 49 HI2     1.344142   -5.550350    5.385687 HC    1 MOL     0.0435 ****
 50 HK1     1.279936   -8.200989    6.803221 HC    1 MOL     0.1066 ****
 51 HK2    -0.007346   -7.395282    5.937277 HC    1 MOL     0.1066 ****
 52 HK3    -0.250831   -7.919435    7.608135 HC    1 MOL     0.1066 ****
 53 HK      2.630397   -5.802960    8.684370 H     1 MOL     0.3529 ****
 54 H26     1.784291   -7.198774   11.796772 HC    1 MOL     0.1047 ****
 55 H27     2.089639   -5.532200   11.322028 HC    1 MOL     0.1047 ****
 56 H28     3.182023   -6.803812   10.783611 HC    1 MOL     0.1047 ****
 57 H29    -1.477964   -6.036937    6.647059 H     1 MOL     0.3615 ****
 58 H30    -3.093698   -4.392096    6.651094 H1    1 MOL     0.1469 ****
 59 H31    -1.937496   -3.234613    7.301911 H1    1 MOL     0.1469 ****
 60 H32    -2.695692   -4.402666    8.372339 H1    1 MOL     0.1469 ****
 61 H       4.915851   -0.149716   -0.582166 H     1 MOL     0.3570 ****
 62 H34     3.793126    1.159892   -3.649292 HC    1 MOL     0.1060 ****
 63 H35     4.736616   -0.157255   -2.937023 HC    1 MOL     0.1060 ****
 64 H36     5.287528    1.505340   -2.789625 HC    1 MOL     0.1060 ****
@<TRIPOS>BOND
    1     1     2 1
    2     1    29 1
    3     1    30 1
    4     1    31 1
    5     2     3 1
    6     2    32 1
    7     3     4 1
    8     3     5 1
    9     5     6 1
   10     5     7 1
   11     5    25 1
   12     6    33 1
   13     6    34 1
   14     6    35 1
   15     7     8 1
   16     7    36 1
   17     7    37 1
   18     8     9 1
   19     8    38 1
   20     8    39 1
   21     9    10 1
   22     9    40 1
   23     9    41 1
   24    10    11 1
   25    10    42 1
   26    11    12 1
   27    11    43 1
   28    12    13 1
   29    12    44 1
   30    12    45 1
   31    13    14 1
   32    13    46 1
   33    13    47 1
   34    14    15 1
   35    14    48 1
   36    14    49 1
   37    15    16 1
   38    15    17 1
   39    15    21 1
   40    16    50 1
   41    16    51 1
   42    16    52 1
   43    17    18 1
   44    17    53 1
   45    18    19 1
   46    18    20 1
   47    19    54 1
   48    19    55 1
   49    19    56 1
   50    21    22 1
   51    21    23 1
   52    23    24 1
   53    23    57 1
   54    24    58 1
   55    24    59 1
   56    24    60 1
   57    25    26 1
   58    25    61 1
   59    26    27 1
   60    26    28 1
   61    27    62 1
   62    27    63 1
   63    27    64 1
@<TRIPOS>SUBSTRUCTURE
      1  MOL              1 ****               0 ****  **** 
