@<TRIPOS>MOLECULE
MOL
   64    63     1     0     1 
SMALL
USER_CHARGES
@<TRIPOS>ATOM
  1 C1      0.000000    0.000000    0.000000 CT    1 MOL    -0.3208 ****
  2 N1      1.448187    0.000000    0.000000 N     1 MOL    -0.5622 ****
  3 C       2.123200    0.475920    1.072365 C     1 MOL     0.8053 ****
  4 O       1.590179    0.696732    2.124447 O     1 MOL    -0.6151 ****
  5 CA      3.650505    0.594143    0.921539 CX    1 MOL     0.0839 ****
  6 C1B     4.337302   -0.068319    2.120411 CU    1 MOL    -0.3230 ****
  7 C2B     4.106104   -0.044553   -0.418647 CU    1 MOL    -0.0657 ****
  8 CC      3.832425   -1.539243   -0.664887 CU    1 MOL    -0.0109 ****
  9 CD      2.432728   -1.935430   -1.175300 CU    1 MOL     0.0816 ****
 10 CE      2.032657   -1.254768   -2.463291 CM    1 MOL    -0.2354 ****
 11 CF      2.103428   -1.745298   -3.690128 CM    1 MOL    -0.2653 ****
 12 CY      2.603123   -3.107834   -4.106727 CU    1 MOL     0.1214 ****
 13 CH      1.489242   -4.115904   -4.442329 CU    1 MOL    -0.0354 ****
 14 CI      0.609943   -3.658769   -5.613984 CU    1 MOL    -0.0984 ****
 15 CJ     -0.437128   -4.657444   -6.171602 CU    1 MOL     0.1300 ****
 16 C1K    -1.217947   -3.939196   -7.284209 CU    1 MOL    -0.3561 ****
 17 N2K     0.266866   -5.801781   -6.734109 N     1 MOL    -0.7186 ****
 18 C15    -0.403669   -6.908234   -7.169082 C     1 MOL     0.8537 ****
 19 C16     0.453783   -8.137693   -7.364053 CT    1 MOL    -0.3868 ****
 20 O2     -1.584087   -6.912189   -7.382949 O     1 MOL    -0.6323 ****
 21 C3K    -1.313450   -5.156149   -5.000245 C     1 MOL     0.7903 ****
 22 OF     -0.937200   -6.060580   -4.304279 O     1 MOL    -0.6136 ****
 23 N3     -2.448676   -4.473240   -4.737797 N     1 MOL    -0.5650 ****
 24 C18    -3.341095   -4.917605   -3.686927 CT    1 MOL    -0.3231 ****
 25 N       4.047519    2.005701    0.815169 N     1 MOL    -0.7191 ****
 26 C19     3.803562    2.935442    1.782504 C     1 MOL     0.8539 ****
 27 C20     4.589777    4.223183    1.649423 CT    1 MOL    -0.3903 ****
 28 O4      3.016381    2.755741    2.668052 O     1 MOL    -0.6290 ****
 29 H1     -0.403259    1.006147    0.000000 H1    1 MOL     0.1459 ****
 30 H2     -0.364960   -0.516002    0.875939 H1    1 MOL     0.1459 ****
 31 H3     -0.345658   -0.522086   -0.883346 H1    1 MOL     0.1459 ****
 32 H4      1.904244    0.070913   -0.879357 H     1 MOL     0.3572 ****
 33 HB1     4.036995   -1.100029    2.222010 HC    1 MOL     0.0997 ****
 34 HB2     5.414404   -0.023740    1.989632 HC    1 MOL     0.0997 ****
 35 HB3     4.072354    0.441803    3.035018 HC    1 MOL     0.0997 ****
 36 HB4     5.184317    0.093909   -0.457477 HC    1 MOL     0.0347 ****
 37 HB5     3.694913    0.539848   -1.235763 HC    1 MOL     0.0347 ****
 38 HC1     4.554475   -1.865539   -1.407715 HC    1 MOL     0.0243 ****
 39 HC2     4.046626   -2.108586    0.233635 HC    1 MOL     0.0243 ****
 40 HD1     1.688382   -1.725636   -0.418136 HC    1 MOL     0.0171 ****
 41 HD2     2.432263   -3.011995   -1.305081 HC    1 MOL     0.0171 ****
 42 HE      1.642509   -0.255983   -2.352257 HA    1 MOL     0.1313 ****
 43 HF      1.765228   -1.111382   -4.494821 HA    1 MOL     0.1359 ****
 44 HG1     3.223639   -3.534877   -3.328228 HC    1 MOL     0.0092 ****
 45 HG2     3.247555   -2.988856   -4.976869 HC    1 MOL     0.0092 ****
 46 HH1     1.961608   -5.069161   -4.662658 HC    1 MOL     0.0318 ****
 47 HH2     0.880273   -4.281493   -3.563372 HC    1 MOL     0.0318 ****
 48 HI1     1.243503   -3.374818   -6.451544 HC    1 MOL     0.0435 ****
 49 HI2     0.071893   -2.766708   -5.315523 HC    1 MOL     0.0435 ****
 50 HK1    -0.538524   -3.721990   -8.100166 HC    1 MOL     0.1066 ****
 51 HK2    -1.619268   -2.993435   -6.935127 HC    1 MOL     0.1066 ****
 52 HK3    -2.020055   -4.551758   -7.667782 HC    1 MOL     0.1066 ****
 53 HK      1.160888   -5.986099   -6.339819 H     1 MOL     0.3529 ****
 54 H26    -0.049084   -8.816175   -8.036249 HC    1 MOL     0.1047 ****
 55 H27     0.578848   -8.628099   -6.403331 HC    1 MOL     0.1047 ****
 56 H28     1.435633   -7.892932   -7.754495 HC    1 MOL     0.1047 ****
 57 H29    -2.837871   -3.909354   -5.456038 H     1 MOL     0.3615 ****
 58 H30    -4.118533   -4.176164   -3.557398 H1    1 MOL     0.1469 ****
 59 H31    -2.793181   -5.018993   -2.761650 H1    1 MOL     0.1469 ****
 60 H32    -3.795943   -5.874321   -3.922644 H1    1 MOL     0.1469 ****
 61 H       4.812365    2.191853    0.205329 H     1 MOL     0.3570 ****
 62 H34     4.071552    5.005554    2.184503 HC    1 MOL     0.1060 ****
 63 H35     4.725575    4.516213    0.614415 HC    1 MOL     0.1060 ****
 64 H36     5.569931    4.089802    2.095863 HC    1 MOL     0.1060 ****
@<TRIPOS>BOND
    1     1     2 1
    2     1    29 1
    3     1    30 1
    4     1    31 1
    5     2     3 1
    6     2    32 1
    7     3     4 1
    8     3     5 1
    9     5     6 1
   10     5     7 1
   11     5    25 1
   12     6    33 1
   13     6    34 1
   14     6    35 1
   15     7     8 1
   16     7    36 1
   17     7    37 1
   18     8     9 1
   19     8    38 1
   20     8    39 1
   21     9    10 1
   22     9    40 1
   23     9    41 1
   24    10    11 1
   25    10    42 1
   26    11    12 1
   27    11    43 1
   28    12    13 1
   29    12    44 1
   30    12    45 1
   31    13    14 1
   32    13    46 1
   33    13    47 1
   34    14    15 1
   35    14    48 1
   36    14    49 1
   37    15    16 1
   38    15    17 1
   39    15    21 1
   40    16    50 1
   41    16    51 1
   42    16    52 1
   43    17    18 1
   44    17    53 1
   45    18    19 1
   46    18    20 1
   47    19    54 1
   48    19    55 1
   49    19    56 1
   50    21    22 1
   51    21    23 1
   52    23    24 1
   53    23    57 1
   54    24    58 1
   55    24    59 1
   56    24    60 1
   57    25    26 1
   58    25    61 1
   59    26    27 1
   60    26    28 1
   61    27    62 1
   62    27    63 1
   63    27    64 1
@<TRIPOS>SUBSTRUCTURE
      1  MOL              1 ****               0 ****  **** 
