@<TRIPOS>MOLECULE
MOL
   64    63     1     0     1 
SMALL
USER_CHARGES
@<TRIPOS>ATOM
  1 C1      0.000000    0.000000    0.000000 CT    1 MOL    -0.3208 ****
  2 N1      1.448187    0.000000    0.000000 N     1 MOL    -0.5622 ****
  3 C       2.123200    0.475920    1.072365 C     1 MOL     0.8053 ****
  4 O       1.590179    0.696732    2.124447 O     1 MOL    -0.6151 ****
  5 CA      3.650505    0.594143    0.921539 CX    1 MOL     0.0839 ****
  6 C1B     4.073315    2.054649    1.111266 CU    1 MOL    -0.3230 ****
  7 C2B     4.361700   -0.339953    1.938036 CU    1 MOL    -0.0657 ****
  8 CC      4.128375   -0.120866    3.443757 CU    1 MOL    -0.0109 ****
  9 CD      2.857188   -0.731271    4.066755 CU    1 MOL     0.0816 ****
 10 CE      2.733385   -2.224325    3.872489 CM    1 MOL    -0.2354 ****
 11 CF      3.046297   -3.178174    4.734472 CM    1 MOL    -0.2653 ****
 12 CY      3.606129   -3.010057    6.126621 CU    1 MOL     0.1214 ****
 13 CH      2.573149   -3.199258    7.252107 CU    1 MOL    -0.0354 ****
 14 CI      1.954233   -4.603473    7.258162 CU    1 MOL    -0.0984 ****
 15 CJ      1.031761   -4.987590    8.443972 CU    1 MOL     0.1300 ****
 16 C1K     0.499973   -6.405445    8.178756 CU    1 MOL    -0.3561 ****
 17 N2K     1.823434   -4.987236    9.666585 N     1 MOL    -0.7186 ****
 18 C15     1.243713   -5.149052   10.891655 C     1 MOL     0.8537 ****
 19 C16     2.110304   -4.751463   12.064577 CT    1 MOL    -0.3868 ****
 20 O2      0.131148   -5.574387   11.034593 O     1 MOL    -0.6323 ****
 21 C3K    -0.068789   -3.910959    8.579550 C     1 MOL     0.7903 ****
 22 OF      0.149378   -2.893786    9.180959 O     1 MOL    -0.6136 ****
 23 N3     -1.226623   -4.117697    7.915727 N     1 MOL    -0.5650 ****
 24 C18    -2.317965   -3.173472    8.040686 CT    1 MOL    -0.3231 ****
 25 N       4.075208    0.101594   -0.396965 N     1 MOL    -0.7191 ****
 26 C19     3.649776    0.635710   -1.577389 C     1 MOL     0.8539 ****
 27 C20     4.459734    0.235533   -2.793097 CT    1 MOL    -0.3903 ****
 28 O4      2.697684    1.359487   -1.653593 O     1 MOL    -0.6290 ****
 29 H1     -0.403259    1.006147    0.000000 H1    1 MOL     0.1459 ****
 30 H2     -0.364960   -0.516002    0.875939 H1    1 MOL     0.1459 ****
 31 H3     -0.345658   -0.522086   -0.883346 H1    1 MOL     0.1459 ****
 32 H4      1.904244    0.070913   -0.879357 H     1 MOL     0.3572 ****
 33 HB1     3.748147    2.434684    2.067704 HC    1 MOL     0.0997 ****
 34 HB2     5.154968    2.128470    1.049499 HC    1 MOL     0.0997 ****
 35 HB3     3.633736    2.676250    0.344906 HC    1 MOL     0.0997 ****
 36 HB4     5.426765   -0.212479    1.757457 HC    1 MOL     0.0347 ****
 37 HB5     4.130606   -1.368728    1.680163 HC    1 MOL     0.0347 ****
 38 HC1     4.982610   -0.556620    3.953677 HC    1 MOL     0.0243 ****
 39 HC2     4.150233    0.939673    3.672130 HC    1 MOL     0.0243 ****
 40 HD1     1.977026   -0.247705    3.663216 HC    1 MOL     0.0171 ****
 41 HD2     2.872056   -0.491373    5.124139 HC    1 MOL     0.0171 ****
 42 HE      2.339035   -2.531440    2.917354 HA    1 MOL     0.1313 ****
 43 HF      2.884664   -4.197850    4.421587 HA    1 MOL     0.1359 ****
 44 HG1     4.051623   -2.028790    6.236694 HC    1 MOL     0.0092 ****
 45 HG2     4.414701   -3.727081    6.263308 HC    1 MOL     0.0092 ****
 46 HH1     3.070620   -2.992176    8.195513 HC    1 MOL     0.0318 ****
 47 HH2     1.797041   -2.451638    7.154382 HC    1 MOL     0.0318 ****
 48 HI1     2.747239   -5.347679    7.229275 HC    1 MOL     0.0435 ****
 49 HI2     1.375988   -4.730815    6.350546 HC    1 MOL     0.0435 ****
 50 HK1     1.332829   -7.098514    8.202991 HC    1 MOL     0.1066 ****
 51 HK2     0.045902   -6.477469    7.195896 HC    1 MOL     0.1066 ****
 52 HK3    -0.213966   -6.710437    8.929095 HC    1 MOL     0.1066 ****
 53 HK      2.617078   -4.388258    9.658404 H     1 MOL     0.3529 ****
 54 H26     1.747199   -5.242466   12.954595 HC    1 MOL     0.1047 ****
 55 H27     2.033081   -3.677255   12.203279 HC    1 MOL     0.1047 ****
 56 H28     3.153348   -5.002517   11.905159 HC    1 MOL     0.1047 ****
 57 H29    -1.456424   -5.044152    7.643362 H     1 MOL     0.3615 ****
 58 H30    -3.097920   -3.452819    7.344585 H1    1 MOL     0.1469 ****
 59 H31    -1.969986   -2.179747    7.799758 H1    1 MOL     0.1469 ****
 60 H32    -2.725338   -3.159628    9.046473 H1    1 MOL     0.1469 ****
 61 H       4.949624   -0.374399   -0.416284 H     1 MOL     0.3570 ****
 62 H34     3.851834    0.366921   -3.676367 HC    1 MOL     0.1060 ****
 63 H35     4.805436   -0.790548   -2.736534 HC    1 MOL     0.1060 ****
 64 H36     5.327671    0.882329   -2.871472 HC    1 MOL     0.1060 ****
@<TRIPOS>BOND
    1     1     2 1
    2     1    29 1
    3     1    30 1
    4     1    31 1
    5     2     3 1
    6     2    32 1
    7     3     4 1
    8     3     5 1
    9     5     6 1
   10     5     7 1
   11     5    25 1
   12     6    33 1
   13     6    34 1
   14     6    35 1
   15     7     8 1
   16     7    36 1
   17     7    37 1
   18     8     9 1
   19     8    38 1
   20     8    39 1
   21     9    10 1
   22     9    40 1
   23     9    41 1
   24    10    11 1
   25    10    42 1
   26    11    12 1
   27    11    43 1
   28    12    13 1
   29    12    44 1
   30    12    45 1
   31    13    14 1
   32    13    46 1
   33    13    47 1
   34    14    15 1
   35    14    48 1
   36    14    49 1
   37    15    16 1
   38    15    17 1
   39    15    21 1
   40    16    50 1
   41    16    51 1
   42    16    52 1
   43    17    18 1
   44    17    53 1
   45    18    19 1
   46    18    20 1
   47    19    54 1
   48    19    55 1
   49    19    56 1
   50    21    22 1
   51    21    23 1
   52    23    24 1
   53    23    57 1
   54    24    58 1
   55    24    59 1
   56    24    60 1
   57    25    26 1
   58    25    61 1
   59    26    27 1
   60    26    28 1
   61    27    62 1
   62    27    63 1
   63    27    64 1
@<TRIPOS>SUBSTRUCTURE
      1  MOL              1 ****               0 ****  **** 
