@<TRIPOS>MOLECULE
MOL
   64    63     1     0     1 
SMALL
USER_CHARGES
@<TRIPOS>ATOM
  1 C1      0.000000    0.000000    0.000000 CT    1 MOL    -0.3208 ****
  2 N1      1.448187    0.000000    0.000000 N     1 MOL    -0.5622 ****
  3 C       2.123200    0.475920    1.072365 C     1 MOL     0.8053 ****
  4 O       1.590179    0.696732    2.124447 O     1 MOL    -0.6151 ****
  5 CA      3.650505    0.594143    0.921539 CX    1 MOL     0.0839 ****
  6 C1B     4.317295    0.403874    2.287932 CU    1 MOL    -0.3230 ****
  7 C2B     4.167210   -0.443096   -0.112266 CU    1 MOL    -0.0657 ****
  8 CC      3.944921   -1.942059    0.158533 CU    1 MOL    -0.0109 ****
  9 CD      2.574390   -2.540816   -0.215326 CU    1 MOL     0.0816 ****
 10 CE      2.196395   -2.352714   -1.665849 CM    1 MOL    -0.2354 ****
 11 CF      2.320705   -3.226921   -2.651276 CM    1 MOL    -0.2653 ****
 12 CY      2.872720   -4.629915   -2.569789 CU    1 MOL     0.1214 ****
 13 CH      1.799813   -5.733735   -2.565520 CU    1 MOL    -0.0354 ****
 14 CI      0.945765   -5.734596   -3.840476 CU    1 MOL    -0.0984 ****
 15 CJ     -0.053531   -6.902280   -4.046792 CU    1 MOL     0.1300 ****
 16 C1K    -0.818640   -6.633917   -5.352947 CU    1 MOL    -0.3561 ****
 17 N2K     0.700970   -8.141822   -4.172475 N     1 MOL    -0.7186 ****
 18 C15     0.077033   -9.354909   -4.219163 C     1 MOL     0.8537 ****
 19 C16     0.975501  -10.544059   -3.967205 CT    1 MOL    -0.3868 ****
 20 O2     -1.095295   -9.476091   -4.442999 O     1 MOL    -0.6323 ****
 21 C3K    -0.952251   -7.007503   -2.793813 C     1 MOL     0.7903 ****
 22 OF     -0.572562   -7.607507   -1.824400 O     1 MOL    -0.6136 ****
 23 N3     -2.114596   -6.319853   -2.802267 N     1 MOL    -0.5650 ****
 24 C18    -3.027098   -6.415441   -1.681372 CT    1 MOL    -0.3231 ****
 25 N       4.009748    1.900156    0.349958 N     1 MOL    -0.7191 ****
 26 C19     3.708051    3.092696    0.938599 C     1 MOL     0.8539 ****
 27 C20     4.460570    4.288094    0.391918 CT    1 MOL    -0.3903 ****
 28 O4      2.898348    3.193887    1.816256 O     1 MOL    -0.6290 ****
 29 H1     -0.403259    1.006147    0.000000 H1    1 MOL     0.1459 ****
 30 H2     -0.364960   -0.516002    0.875939 H1    1 MOL     0.1459 ****
 31 H3     -0.345658   -0.522086   -0.883346 H1    1 MOL     0.1459 ****
 32 H4      1.904244    0.070913   -0.879357 H     1 MOL     0.3572 ****
 33 HB1     4.043838   -0.542995    2.727923 HC    1 MOL     0.0997 ****
 34 HB2     5.396302    0.442506    2.171794 HC    1 MOL     0.0997 ****
 35 HB3     4.008454    1.183281    2.969158 HC    1 MOL     0.0997 ****
 36 HB4     5.241659   -0.285005   -0.173826 HC    1 MOL     0.0347 ****
 37 HB5     3.765759   -0.186326   -1.087554 HC    1 MOL     0.0347 ****
 38 HC1     4.699600   -2.473024   -0.414314 HC    1 MOL     0.0243 ****
 39 HC2     4.146514   -2.164592    1.201228 HC    1 MOL     0.0243 ****
 40 HD1     1.800343   -2.115358    0.410134 HC    1 MOL     0.0171 ****
 41 HD2     2.609226   -3.596840    0.028466 HC    1 MOL     0.0171 ****
 42 HE      1.774163   -1.391046   -1.908808 HA    1 MOL     0.1313 ****
 43 HF      1.990347   -2.916612   -3.630221 HA    1 MOL     0.1359 ****
 44 HG1     3.479989   -4.743872   -1.680012 HC    1 MOL     0.0092 ****
 45 HG2     3.541068   -4.788408   -3.415238 HC    1 MOL     0.0092 ****
 46 HH1     2.306383   -6.686512   -2.439121 HC    1 MOL     0.0318 ****
 47 HH2     1.167959   -5.614721   -1.695217 HC    1 MOL     0.0318 ****
 48 HI1     1.597434   -5.727377   -4.711572 HC    1 MOL     0.0435 ****
 49 HI2     0.372832   -4.815369   -3.873954 HC    1 MOL     0.0435 ****
 50 HK1    -0.119914   -6.680374   -6.180114 HC    1 MOL     0.1066 ****
 51 HK2    -1.258151   -5.641844   -5.354286 HC    1 MOL     0.1066 ****
 52 HK3    -1.589960   -7.370317   -5.521821 HC    1 MOL     0.1066 ****
 53 HK      1.586816   -8.147392   -3.720859 H     1 MOL     0.3529 ****
 54 H26     0.514323  -11.428840   -4.378956 HC    1 MOL     0.1047 ****
 55 H27     1.083760  -10.674705   -2.894668 HC    1 MOL     0.1047 ****
 56 H28     1.961901  -10.408878   -4.397465 HC    1 MOL     0.1047 ****
 57 H29    -2.496655   -6.048020   -3.677166 H     1 MOL     0.3615 ****
 58 H30    -3.829411   -5.704180   -1.827395 H1    1 MOL     0.1469 ****
 59 H31    -2.506495   -6.176289   -0.765728 H1    1 MOL     0.1469 ****
 60 H32    -3.446282   -7.412019   -1.587187 H1    1 MOL     0.1469 ****
 61 H       4.788092    1.897618   -0.271107 H     1 MOL     0.3570 ****
 62 H34     3.903013    5.185154    0.618604 HC    1 MOL     0.1060 ****
 63 H35     4.621024    4.217962   -0.678075 HC    1 MOL     0.1060 ****
 64 H36     5.429320    4.351363    0.877018 HC    1 MOL     0.1060 ****
@<TRIPOS>BOND
    1     1     2 1
    2     1    29 1
    3     1    30 1
    4     1    31 1
    5     2     3 1
    6     2    32 1
    7     3     4 1
    8     3     5 1
    9     5     6 1
   10     5     7 1
   11     5    25 1
   12     6    33 1
   13     6    34 1
   14     6    35 1
   15     7     8 1
   16     7    36 1
   17     7    37 1
   18     8     9 1
   19     8    38 1
   20     8    39 1
   21     9    10 1
   22     9    40 1
   23     9    41 1
   24    10    11 1
   25    10    42 1
   26    11    12 1
   27    11    43 1
   28    12    13 1
   29    12    44 1
   30    12    45 1
   31    13    14 1
   32    13    46 1
   33    13    47 1
   34    14    15 1
   35    14    48 1
   36    14    49 1
   37    15    16 1
   38    15    17 1
   39    15    21 1
   40    16    50 1
   41    16    51 1
   42    16    52 1
   43    17    18 1
   44    17    53 1
   45    18    19 1
   46    18    20 1
   47    19    54 1
   48    19    55 1
   49    19    56 1
   50    21    22 1
   51    21    23 1
   52    23    24 1
   53    23    57 1
   54    24    58 1
   55    24    59 1
   56    24    60 1
   57    25    26 1
   58    25    61 1
   59    26    27 1
   60    26    28 1
   61    27    62 1
   62    27    63 1
   63    27    64 1
@<TRIPOS>SUBSTRUCTURE
      1  MOL              1 ****               0 ****  **** 
