@<TRIPOS>MOLECULE
MOL
   64    63     1     0     1 
SMALL
USER_CHARGES
@<TRIPOS>ATOM
  1 C1      0.000000    0.000000    0.000000 CT    1 MOL    -0.3208 ****
  2 N1      1.448187    0.000000    0.000000 N     1 MOL    -0.5622 ****
  3 C       2.123200    0.475920    1.072365 C     1 MOL     0.8053 ****
  4 O       1.590179    0.696732    2.124447 O     1 MOL    -0.6151 ****
  5 CA      3.650505    0.594143    0.921539 CX    1 MOL     0.0839 ****
  6 C1B     4.271987   -0.805839    0.880909 CU    1 MOL    -0.3230 ****
  7 C2B     4.000045    1.408259   -0.353859 CU    1 MOL    -0.0657 ****
  8 CC      3.540290    0.881818   -1.725398 CU    1 MOL    -0.0109 ****
  9 CD      2.093588    1.188511   -2.160861 CU    1 MOL     0.0816 ****
 10 CE      1.757253    2.661155   -2.182657 CM    1 MOL    -0.2354 ****
 11 CF      1.745194    3.469957   -3.229773 CM    1 MOL    -0.2653 ****
 12 CY      2.066020    3.120855   -4.663284 CU    1 MOL     0.1214 ****
 13 CH      0.830810    2.955567   -5.566888 CU    1 MOL    -0.0354 ****
 14 CI     -0.006441    4.237790   -5.666019 CU    1 MOL    -0.0984 ****
 15 CJ     -1.178178    4.265715   -6.681351 CU    1 MOL     0.1300 ****
 16 C1K    -1.884549    5.623699   -6.538624 CU    1 MOL    -0.3561 ****
 17 N2K    -0.630419    4.142729   -8.025362 N     1 MOL    -0.7186 ****
 18 C15    -1.439596    3.992993   -9.114339 C     1 MOL     0.8537 ****
 19 C16    -0.743454    3.502819  -10.363307 CT    1 MOL    -0.3868 ****
 20 O2     -2.615181    4.230771   -9.089786 O     1 MOL    -0.6323 ****
 21 C3K    -2.088059    3.044923   -6.415817 C     1 MOL     0.7903 ****
 22 OF     -1.813475    1.971795   -6.881573 O     1 MOL    -0.6136 ****
 23 N3     -3.125817    3.214962   -5.568394 N     1 MOL    -0.5650 ****
 24 C18    -4.047146    2.126238   -5.315340 CT    1 MOL    -0.3231 ****
 25 N       4.216104    1.377325    2.029760 N     1 MOL    -0.7191 ****
 26 C19     4.105677    1.021485    3.341574 C     1 MOL     0.8539 ****
 27 C20     5.041758    1.747250    4.285574 CT    1 MOL    -0.3903 ****
 28 O4      3.318355    0.203636    3.725484 O     1 MOL    -0.6290 ****
 29 H1     -0.403259    1.006147    0.000000 H1    1 MOL     0.1459 ****
 30 H2     -0.364960   -0.516002    0.875939 H1    1 MOL     0.1459 ****
 31 H3     -0.345658   -0.522086   -0.883346 H1    1 MOL     0.1459 ****
 32 H4      1.904244    0.070913   -0.879357 H     1 MOL     0.3572 ****
 33 HB1     3.848966   -1.398381    0.084115 HC    1 MOL     0.0997 ****
 34 HB2     5.343881   -0.720908    0.729028 HC    1 MOL     0.0997 ****
 35 HB3     4.088191   -1.326238    1.809527 HC    1 MOL     0.0997 ****
 36 HB4     5.086232    1.461000   -0.379132 HC    1 MOL     0.0347 ****
 37 HB5     3.649270    2.426619   -0.219031 HC    1 MOL     0.0347 ****
 38 HC1     4.203324    1.325049   -2.462658 HC    1 MOL     0.0243 ****
 39 HC2     3.698911   -0.190016   -1.783571 HC    1 MOL     0.0243 ****
 40 HD1     1.394362    0.675357   -1.513466 HC    1 MOL     0.0171 ****
 41 HD2     1.958427    0.759083   -3.147349 HC    1 MOL     0.0171 ****
 42 HE      1.494928    3.085906   -1.227206 HA    1 MOL     0.1313 ****
 43 HF      1.473156    4.499088   -3.054716 HA    1 MOL     0.1359 ****
 44 HG1     2.643155    2.205178   -4.707081 HC    1 MOL     0.0092 ****
 45 HG2     2.704509    3.901541   -5.074933 HC    1 MOL     0.0092 ****
 46 HH1     1.178358    2.644197   -6.548027 HC    1 MOL     0.0318 ****
 47 HH2     0.221936    2.142170   -5.194748 HC    1 MOL     0.0318 ****
 48 HI1     0.642129    5.073839   -5.918831 HC    1 MOL     0.0435 ****
 49 HI2    -0.425290    4.454020   -4.690232 HC    1 MOL     0.0435 ****
 50 HK1    -1.198292    6.405390   -6.842914 HC    1 MOL     0.1066 ****
 51 HK2    -2.160218    5.816857   -5.507082 HC    1 MOL     0.1066 ****
 52 HK3    -2.762629    5.684157   -7.163970 HC    1 MOL     0.1066 ****
 53 HK      0.241069    3.667935   -8.086937 H     1 MOL     0.3529 ****
 54 H26    -1.337885    3.765227  -11.225197 HC    1 MOL     0.1047 ****
 55 H27    -0.662459    2.421171  -10.312288 HC    1 MOL     0.1047 ****
 56 H28     0.253892    3.916986  -10.464039 HC    1 MOL     0.1047 ****
 57 H29    -3.455519    4.136642   -5.403737 H     1 MOL     0.3615 ****
 58 H30    -4.725071    2.423703   -4.526129 H1    1 MOL     0.1469 ****
 59 H31    -3.499379    1.251068   -4.998079 H1    1 MOL     0.1469 ****
 60 H32    -4.620327    1.869761   -6.200459 H1    1 MOL     0.1469 ****
 61 H       4.986994    1.961514    1.793117 H     1 MOL     0.3570 ****
 62 H34     4.633330    1.703171    5.284682 HC    1 MOL     0.1060 ****
 63 H35     5.194005    2.781545    3.998163 HC    1 MOL     0.1060 ****
 64 H36     6.005908    1.249040    4.283986 HC    1 MOL     0.1060 ****
@<TRIPOS>BOND
    1     1     2 1
    2     1    29 1
    3     1    30 1
    4     1    31 1
    5     2     3 1
    6     2    32 1
    7     3     4 1
    8     3     5 1
    9     5     6 1
   10     5     7 1
   11     5    25 1
   12     6    33 1
   13     6    34 1
   14     6    35 1
   15     7     8 1
   16     7    36 1
   17     7    37 1
   18     8     9 1
   19     8    38 1
   20     8    39 1
   21     9    10 1
   22     9    40 1
   23     9    41 1
   24    10    11 1
   25    10    42 1
   26    11    12 1
   27    11    43 1
   28    12    13 1
   29    12    44 1
   30    12    45 1
   31    13    14 1
   32    13    46 1
   33    13    47 1
   34    14    15 1
   35    14    48 1
   36    14    49 1
   37    15    16 1
   38    15    17 1
   39    15    21 1
   40    16    50 1
   41    16    51 1
   42    16    52 1
   43    17    18 1
   44    17    53 1
   45    18    19 1
   46    18    20 1
   47    19    54 1
   48    19    55 1
   49    19    56 1
   50    21    22 1
   51    21    23 1
   52    23    24 1
   53    23    57 1
   54    24    58 1
   55    24    59 1
   56    24    60 1
   57    25    26 1
   58    25    61 1
   59    26    27 1
   60    26    28 1
   61    27    62 1
   62    27    63 1
   63    27    64 1
@<TRIPOS>SUBSTRUCTURE
      1  MOL              1 ****               0 ****  **** 
