@<TRIPOS>MOLECULE
MOL
   64    63     1     0     1 
SMALL
USER_CHARGES
@<TRIPOS>ATOM
  1 C1      0.000000    0.000000    0.000000 CT    1 MOL    -0.3208 ****
  2 N1      1.448187    0.000000    0.000000 N     1 MOL    -0.5622 ****
  3 C       2.123200    0.475920    1.072365 C     1 MOL     0.8053 ****
  4 O       1.590179    0.696732    2.124447 O     1 MOL    -0.6151 ****
  5 CA      3.650505    0.594143    0.921539 CX    1 MOL     0.0839 ****
  6 C1B     4.253019    1.145194    2.218135 CU    1 MOL    -0.3230 ****
  7 C2B     4.259530   -0.786200    0.553651 CU    1 MOL    -0.0657 ****
  8 CC      4.081910   -1.964612    1.528039 CU    1 MOL    -0.0109 ****
  9 CD      2.756672   -2.749861    1.466660 CU    1 MOL     0.0816 ****
 10 CE      2.446765   -3.327345    0.105503 CM    1 MOL    -0.2354 ****
 11 CF      2.655398   -4.565649   -0.311430 CM    1 MOL    -0.2653 ****
 12 CY      3.256488   -5.708762    0.470707 CU    1 MOL     0.1214 ****
 13 CH      2.228399   -6.726975    0.995912 CU    1 MOL    -0.0354 ****
 14 CI      1.441725   -7.409515   -0.131118 CU    1 MOL    -0.0984 ****
 15 CJ      0.500400   -8.582990    0.245061 CU    1 MOL     0.1300 ****
 16 C1K    -0.206355   -9.042345   -1.040607 CU    1 MOL    -0.3561 ****
 17 N2K     1.307871   -9.675002    0.771400 N     1 MOL    -0.7186 ****
 18 C15     0.734678  -10.786579    1.318121 C     1 MOL     0.8537 ****
 19 C16     1.664441  -11.639417    2.150596 CT    1 MOL    -0.3868 ****
 20 O2     -0.419005  -11.071847    1.154478 O     1 MOL    -0.6323 ****
 21 C3K    -0.456810   -8.107053    1.361286 C     1 MOL     0.7903 ****
 22 OF     -0.104494   -8.124710    2.509977 O     1 MOL    -0.6136 ****
 23 N3     -1.642976   -7.583986    0.982613 N     1 MOL    -0.5650 ****
 24 C18    -2.607520   -7.165908    1.979140 CT    1 MOL    -0.3231 ****
 25 N       3.987746    1.464493   -0.214327 N     1 MOL    -0.7191 ****
 26 C19     3.610154    2.771781   -0.304281 C     1 MOL     0.8539 ****
 27 C20     4.342864    3.581859   -1.353581 CT    1 MOL    -0.3903 ****
 28 O4      2.753072    3.246088    0.386070 O     1 MOL    -0.6290 ****
 29 H1     -0.403259    1.006147    0.000000 H1    1 MOL     0.1459 ****
 30 H2     -0.364960   -0.516002    0.875939 H1    1 MOL     0.1459 ****
 31 H3     -0.345658   -0.522086   -0.883346 H1    1 MOL     0.1459 ****
 32 H4      1.904244    0.070913   -0.879357 H     1 MOL     0.3572 ****
 33 HB1     3.994224    0.526084    3.063511 HC    1 MOL     0.0997 ****
 34 HB2     5.334261    1.185060    2.125584 HC    1 MOL     0.0997 ****
 35 HB3     3.879559    2.139789    2.413675 HC    1 MOL     0.0997 ****
 36 HB4     5.328782   -0.616034    0.448935 HC    1 MOL     0.0347 ****
 37 HB5     3.899111   -1.070262   -0.430060 HC    1 MOL     0.0347 ****
 38 HC1     4.885074   -2.663800    1.314306 HC    1 MOL     0.0243 ****
 39 HC2     4.238091   -1.629332    2.548122 HC    1 MOL     0.0243 ****
 40 HD1     1.935567   -2.117225    1.777983 HC    1 MOL     0.0171 ****
 41 HD2     2.819854   -3.542474    2.203957 HC    1 MOL     0.0171 ****
 42 HE      2.000608   -2.639043   -0.593995 HA    1 MOL     0.1313 ****
 43 HF      2.364037   -4.800904   -1.323124 HA    1 MOL     0.1359 ****
 44 HG1     3.821157   -5.331059    1.314482 HC    1 MOL     0.0092 ****
 45 HG2     3.973074   -6.225161   -0.166811 HC    1 MOL     0.0092 ****
 46 HH1     2.764368   -7.460286    1.592038 HC    1 MOL     0.0318 ****
 47 HH2     1.548484   -6.230330    1.675537 HC    1 MOL     0.0318 ****
 48 HI1     2.136560   -7.795959   -0.873681 HC    1 MOL     0.0435 ****
 49 HI2     0.836054   -6.663210   -0.631657 HC    1 MOL     0.0435 ****
 50 HK1     0.535260   -9.450780   -1.717193 HC    1 MOL     0.1066 ****
 51 HK2    -0.683359   -8.209083   -1.546100 HC    1 MOL     0.1066 ****
 52 HK3    -0.938829   -9.809942   -0.840569 HC    1 MOL     0.1066 ****
 53 HK      2.168868   -9.403790    1.188341 H     1 MOL     0.3529 ****
 54 H26     1.259709  -12.637520    2.221617 HC    1 MOL     0.1047 ****
 55 H27     1.722384  -11.215238    3.148514 HC    1 MOL     0.1047 ****
 56 H28     2.665677  -11.676865    1.735258 HC    1 MOL     0.1047 ****
 57 H29    -1.989790   -7.804140    0.078975 H     1 MOL     0.3615 ****
 58 H30    -3.428242   -6.669171    1.478552 H1    1 MOL     0.1469 ****
 59 H31    -2.144363   -6.474450    2.667614 H1    1 MOL     0.1469 ****
 60 H32    -2.992027   -8.007944    2.545608 H1    1 MOL     0.1469 ****
 61 H       4.796512    1.200881   -0.731970 H     1 MOL     0.3570 ****
 62 H34     3.740016    4.438668   -1.617068 HC    1 MOL     0.1060 ****
 63 H35     4.560731    3.000811   -2.242663 HC    1 MOL     0.1060 ****
 64 H36     5.282201    3.934228   -0.939717 HC    1 MOL     0.1060 ****
@<TRIPOS>BOND
    1     1     2 1
    2     1    29 1
    3     1    30 1
    4     1    31 1
    5     2     3 1
    6     2    32 1
    7     3     4 1
    8     3     5 1
    9     5     6 1
   10     5     7 1
   11     5    25 1
   12     6    33 1
   13     6    34 1
   14     6    35 1
   15     7     8 1
   16     7    36 1
   17     7    37 1
   18     8     9 1
   19     8    38 1
   20     8    39 1
   21     9    10 1
   22     9    40 1
   23     9    41 1
   24    10    11 1
   25    10    42 1
   26    11    12 1
   27    11    43 1
   28    12    13 1
   29    12    44 1
   30    12    45 1
   31    13    14 1
   32    13    46 1
   33    13    47 1
   34    14    15 1
   35    14    48 1
   36    14    49 1
   37    15    16 1
   38    15    17 1
   39    15    21 1
   40    16    50 1
   41    16    51 1
   42    16    52 1
   43    17    18 1
   44    17    53 1
   45    18    19 1
   46    18    20 1
   47    19    54 1
   48    19    55 1
   49    19    56 1
   50    21    22 1
   51    21    23 1
   52    23    24 1
   53    23    57 1
   54    24    58 1
   55    24    59 1
   56    24    60 1
   57    25    26 1
   58    25    61 1
   59    26    27 1
   60    26    28 1
   61    27    62 1
   62    27    63 1
   63    27    64 1
@<TRIPOS>SUBSTRUCTURE
      1  MOL              1 ****               0 ****  **** 
