@<TRIPOS>MOLECULE
MOL
   64    63     1     0     1 
SMALL
USER_CHARGES
@<TRIPOS>ATOM
  1 C1      0.000000    0.000000    0.000000 CT    1 MOL    -0.3208 ****
  2 N1      1.448187    0.000000    0.000000 N     1 MOL    -0.5622 ****
  3 C       2.123200    0.475920    1.072365 C     1 MOL     0.8053 ****
  4 O       1.590179    0.696732    2.124447 O     1 MOL    -0.6151 ****
  5 CA      3.650505    0.594143    0.921539 CX    1 MOL     0.0839 ****
  6 C1B     4.313195   -0.711994    1.371750 CU    1 MOL    -0.3230 ****
  7 C2B     4.017158    0.940532   -0.547196 CU    1 MOL    -0.0657 ****
  8 CC      3.617126   -0.036690   -1.667305 CU    1 MOL    -0.0109 ****
  9 CD      2.176899    0.048903   -2.210498 CU    1 MOL     0.0816 ****
 10 CE      1.798994    1.413056   -2.738279 CM    1 MOL    -0.2354 ****
 11 CF      1.797205    1.818036   -3.997940 CM    1 MOL    -0.2653 ****
 12 CY      2.173887    1.016265   -5.220653 CU    1 MOL     0.1214 ****
 13 CH      0.973646    0.507578   -6.039324 CU    1 MOL    -0.0354 ****
 14 CI      0.103284    1.647427   -6.585335 CU    1 MOL    -0.0984 ****
 15 CJ     -1.035540    1.284923   -7.573422 CU    1 MOL     0.1300 ****
 16 C1K    -1.785105    2.582946   -7.915094 CU    1 MOL    -0.3561 ****
 17 N2K    -0.441551    0.734692   -8.784188 N     1 MOL    -0.7186 ****
 18 C15    -1.210650    0.194036   -9.773751 C     1 MOL     0.8537 ****
 19 C16    -0.460854   -0.663505  -10.767347 CT    1 MOL    -0.3868 ****
 20 O2     -2.392802    0.381080   -9.855453 O     1 MOL    -0.6323 ****
 21 C3K    -1.917801    0.192636   -6.927473 C     1 MOL     0.7903 ****
 22 OF     -1.597476   -0.963540   -6.995144 O     1 MOL    -0.6136 ****
 23 N3     -2.986735    0.600129   -6.209623 N     1 MOL    -0.5650 ****
 24 C18    -3.883851   -0.372672   -5.620521 CT    1 MOL    -0.3231 ****
 25 N       4.157319    1.727509    1.708973 N     1 MOL    -0.7191 ****
 26 C19     4.015134    1.833374    3.061100 C     1 MOL     0.8539 ****
 27 C20     4.899021    2.871228    3.721194 CT    1 MOL    -0.3903 ****
 28 O4      3.239862    1.164662    3.683930 O     1 MOL    -0.6290 ****
 29 H1     -0.403259    1.006147    0.000000 H1    1 MOL     0.1459 ****
 30 H2     -0.364960   -0.516002    0.875939 H1    1 MOL     0.1459 ****
 31 H3     -0.345658   -0.522086   -0.883346 H1    1 MOL     0.1459 ****
 32 H4      1.904244    0.070913   -0.879357 H     1 MOL     0.3572 ****
 33 HB1     3.933306   -1.555170    0.815269 HC    1 MOL     0.0997 ****
 34 HB2     5.386511   -0.642779    1.221952 HC    1 MOL     0.0997 ****
 35 HB3     4.114780   -0.893485    2.417991 HC    1 MOL     0.0997 ****
 36 HB4     5.101616    1.022939   -0.566718 HC    1 MOL     0.0347 ****
 37 HB5     3.632930    1.930167   -0.773631 HC    1 MOL     0.0347 ****
 38 HC1     4.290412    0.155374   -2.497616 HC    1 MOL     0.0243 ****
 39 HC2     3.808461   -1.057936   -1.354544 HC    1 MOL     0.0243 ****
 40 HD1     1.472364   -0.240727   -1.441662 HC    1 MOL     0.0171 ****
 41 HD2     2.085980   -0.694257   -2.994896 HC    1 MOL     0.0171 ****
 42 HE      1.493932    2.126153   -1.989584 HA    1 MOL     0.1313 ****
 43 HF      1.490037    2.834430   -4.188602 HA    1 MOL     0.1359 ****
 44 HG1     2.778368    0.162635   -4.938898 HC    1 MOL     0.0092 ****
 45 HG2     2.802431    1.634969   -5.859974 HC    1 MOL     0.0092 ****
 46 HH1     1.361399   -0.104393   -6.848962 HC    1 MOL     0.0318 ****
 47 HH2     0.376904   -0.154137   -5.425433 HC    1 MOL     0.0318 ****
 48 HI1     0.735196    2.372390   -7.093913 HC    1 MOL     0.0435 ****
 49 HI2    -0.352779    2.165432   -5.749855 HC    1 MOL     0.0435 ****
 50 HK1    -1.112316    3.240799   -8.452835 HC    1 MOL     0.1066 ****
 51 HK2    -2.099248    3.103613   -7.016428 HC    1 MOL     0.1066 ****
 52 HK3    -2.644020    2.394383   -8.541552 HC    1 MOL     0.1066 ****
 53 HK      0.444830    0.300706   -8.662961 H     1 MOL     0.3529 ****
 54 H26    -1.034623   -0.731581  -11.679058 HC    1 MOL     0.1047 ****
 55 H27    -0.350296   -1.659929  -10.350165 HC    1 MOL     0.1047 ****
 56 H28     0.526820   -0.270298  -10.982452 HC    1 MOL     0.1047 ****
 57 H29    -3.348072    1.509792   -6.374728 H     1 MOL     0.3615 ****
 58 H30    -4.595103    0.148592   -4.993364 H1    1 MOL     0.1469 ****
 59 H31    -3.321484   -1.066979   -5.013638 H1    1 MOL     0.1469 ****
 60 H32    -4.420640   -0.935588   -6.377315 H1    1 MOL     0.1469 ****
 61 H       4.918199    2.225852    1.303680 H     1 MOL     0.3570 ****
 62 H34     4.460146    3.152830    4.667271 HC    1 MOL     0.1060 ****
 63 H35     5.030452    3.751912    3.102589 HC    1 MOL     0.1060 ****
 64 H36     5.876727    2.439091    3.908673 HC    1 MOL     0.1060 ****
@<TRIPOS>BOND
    1     1     2 1
    2     1    29 1
    3     1    30 1
    4     1    31 1
    5     2     3 1
    6     2    32 1
    7     3     4 1
    8     3     5 1
    9     5     6 1
   10     5     7 1
   11     5    25 1
   12     6    33 1
   13     6    34 1
   14     6    35 1
   15     7     8 1
   16     7    36 1
   17     7    37 1
   18     8     9 1
   19     8    38 1
   20     8    39 1
   21     9    10 1
   22     9    40 1
   23     9    41 1
   24    10    11 1
   25    10    42 1
   26    11    12 1
   27    11    43 1
   28    12    13 1
   29    12    44 1
   30    12    45 1
   31    13    14 1
   32    13    46 1
   33    13    47 1
   34    14    15 1
   35    14    48 1
   36    14    49 1
   37    15    16 1
   38    15    17 1
   39    15    21 1
   40    16    50 1
   41    16    51 1
   42    16    52 1
   43    17    18 1
   44    17    53 1
   45    18    19 1
   46    18    20 1
   47    19    54 1
   48    19    55 1
   49    19    56 1
   50    21    22 1
   51    21    23 1
   52    23    24 1
   53    23    57 1
   54    24    58 1
   55    24    59 1
   56    24    60 1
   57    25    26 1
   58    25    61 1
   59    26    27 1
   60    26    28 1
   61    27    62 1
   62    27    63 1
   63    27    64 1
@<TRIPOS>SUBSTRUCTURE
      1  MOL              1 ****               0 ****  **** 
