@<TRIPOS>MOLECULE
MOL
   64    63     1     0     1 
SMALL
USER_CHARGES
@<TRIPOS>ATOM
  1 C1      0.000000    0.000000    0.000000 CT    1 MOL    -0.3208 ****
  2 N1      1.448187    0.000000    0.000000 N     1 MOL    -0.5622 ****
  3 C       2.123200    0.475920    1.072365 C     1 MOL     0.8053 ****
  4 O       1.590179    0.696732    2.124447 O     1 MOL    -0.6151 ****
  5 CA      3.650505    0.594143    0.921539 CX    1 MOL     0.0839 ****
  6 C1B     4.217225   -0.726073    0.388905 CU    1 MOL    -0.3230 ****
  7 C2B     4.004718    1.782740   -0.013004 CU    1 MOL    -0.0657 ****
  8 CC      3.497344    1.767223   -1.466264 CU    1 MOL    -0.0109 ****
  9 CD      2.054796    2.245339   -1.725293 CU    1 MOL     0.0816 ****
 10 CE      1.774451    3.646828   -1.235893 CM    1 MOL    -0.2354 ****
 11 CF      1.771859    4.763313   -1.945972 CM    1 MOL    -0.2653 ****
 12 CY      2.049830    4.912989   -3.422482 CU    1 MOL     0.1214 ****
 13 CH      0.791037    5.100385   -4.288443 CU    1 MOL    -0.0354 ****
 14 CI      0.001410    6.363634   -3.920198 CU    1 MOL    -0.0984 ****
 15 CJ     -1.188886    6.768791   -4.827772 CU    1 MOL     0.1300 ****
 16 C1K    -1.839933    8.017287   -4.210645 CU    1 MOL    -0.3561 ****
 17 N2K    -0.673751    7.094051   -6.150789 N     1 MOL    -0.7186 ****
 18 C15    -1.510098    7.346740   -7.199468 C     1 MOL     0.8537 ****
 19 C16    -0.858773    7.290237   -8.562329 CT    1 MOL    -0.3868 ****
 20 O2     -2.675022    7.595914   -7.058024 O     1 MOL    -0.6323 ****
 21 C3K    -2.139020    5.557266   -4.962595 C     1 MOL     0.7903 ****
 22 OF     -1.915092    4.698804   -5.773044 O     1 MOL    -0.6136 ****
 23 N3     -3.152037    5.459155   -4.074815 N     1 MOL    -0.5650 ****
 24 C18    -4.108830    4.376353   -4.176246 CT    1 MOL    -0.3231 ****
 25 N       4.268035    0.937429    2.210819 N     1 MOL    -0.7191 ****
 26 C19     4.170919    0.160343    3.327232 C     1 MOL     0.8539 ****
 27 C20     5.153046    0.494745    4.430736 CT    1 MOL    -0.3903 ****
 28 O4      3.361000   -0.716165    3.436336 O     1 MOL    -0.6290 ****
 29 H1     -0.403259    1.006147    0.000000 H1    1 MOL     0.1459 ****
 30 H2     -0.364960   -0.516002    0.875939 H1    1 MOL     0.1459 ****
 31 H3     -0.345658   -0.522086   -0.883346 H1    1 MOL     0.1459 ****
 32 H4      1.904244    0.070913   -0.879357 H     1 MOL     0.3572 ****
 33 HB1     3.755760   -1.000097   -0.547521 HC    1 MOL     0.0997 ****
 34 HB2     5.288255   -0.625618    0.240437 HC    1 MOL     0.0997 ****
 35 HB3     4.032718   -1.525514    1.091597 HC    1 MOL     0.0997 ****
 36 HB4     5.091384    1.809499   -0.053795 HC    1 MOL     0.0347 ****
 37 HB5     3.695830    2.704376    0.470170 HC    1 MOL     0.0347 ****
 38 HC1     4.161605    2.415238   -2.030581 HC    1 MOL     0.0243 ****
 39 HC2     3.613783    0.774828   -1.889310 HC    1 MOL     0.0243 ****
 40 HD1     1.349879    1.563175   -1.268010 HC    1 MOL     0.0171 ****
 41 HD2     1.883267    2.180785   -2.794052 HC    1 MOL     0.0171 ****
 42 HE      1.548054    3.729025   -0.185130 HA    1 MOL     0.1313 ****
 43 HF      1.542866    5.679126   -1.423851 HA    1 MOL     0.1359 ****
 44 HG1     2.590636    4.050402   -3.792536 HC    1 MOL     0.0092 ****
 45 HG2     2.709073    5.768292   -3.565482 HC    1 MOL     0.0092 ****
 46 HH1     1.106374    5.131037   -5.327672 HC    1 MOL     0.0318 ****
 47 HH2     0.159328    4.226902   -4.194630 HC    1 MOL     0.0318 ****
 48 HI1     0.676076    7.216714   -3.895409 HC    1 MOL     0.0435 ****
 49 HI2    -0.388896    6.247427   -2.915953 HC    1 MOL     0.0435 ****
 50 HK1    -1.130737    8.835671   -4.253891 HC    1 MOL     0.1066 ****
 51 HK2    -2.086935    7.856305   -3.166396 HC    1 MOL     0.1066 ****
 52 HK3    -2.727649    8.312013   -4.749936 HC    1 MOL     0.1066 ****
 53 HK      0.177572    6.643446   -6.397599 H     1 MOL     0.3529 ****
 54 H26    -1.460236    7.846984   -9.264708 HC    1 MOL     0.1047 ****
 55 H27    -0.818033    6.253757   -8.883536 HC    1 MOL     0.1047 ****
 56 H28     0.151369    7.684965   -8.548728 HC    1 MOL     0.1047 ****
 57 H29    -3.442947    6.279160   -3.597037 H     1 MOL     0.3615 ****
 58 H30    -4.758682    4.407404   -3.311578 H1    1 MOL     0.1469 ****
 59 H31    -3.588453    3.430001   -4.192135 H1    1 MOL     0.1469 ****
 60 H32    -4.709311    4.452601   -5.077002 H1    1 MOL     0.1469 ****
 61 H       5.055638    1.544717    2.161525 H     1 MOL     0.3570 ****
 62 H34     4.763707    0.125609    5.368354 HC    1 MOL     0.1060 ****
 63 H35     5.338701    1.560296    4.506128 HC    1 MOL     0.1060 ****
 64 H36     6.097276   -0.000937    4.229417 HC    1 MOL     0.1060 ****
@<TRIPOS>BOND
    1     1     2 1
    2     1    29 1
    3     1    30 1
    4     1    31 1
    5     2     3 1
    6     2    32 1
    7     3     4 1
    8     3     5 1
    9     5     6 1
   10     5     7 1
   11     5    25 1
   12     6    33 1
   13     6    34 1
   14     6    35 1
   15     7     8 1
   16     7    36 1
   17     7    37 1
   18     8     9 1
   19     8    38 1
   20     8    39 1
   21     9    10 1
   22     9    40 1
   23     9    41 1
   24    10    11 1
   25    10    42 1
   26    11    12 1
   27    11    43 1
   28    12    13 1
   29    12    44 1
   30    12    45 1
   31    13    14 1
   32    13    46 1
   33    13    47 1
   34    14    15 1
   35    14    48 1
   36    14    49 1
   37    15    16 1
   38    15    17 1
   39    15    21 1
   40    16    50 1
   41    16    51 1
   42    16    52 1
   43    17    18 1
   44    17    53 1
   45    18    19 1
   46    18    20 1
   47    19    54 1
   48    19    55 1
   49    19    56 1
   50    21    22 1
   51    21    23 1
   52    23    24 1
   53    23    57 1
   54    24    58 1
   55    24    59 1
   56    24    60 1
   57    25    26 1
   58    25    61 1
   59    26    27 1
   60    26    28 1
   61    27    62 1
   62    27    63 1
   63    27    64 1
@<TRIPOS>SUBSTRUCTURE
      1  MOL              1 ****               0 ****  **** 
