@<TRIPOS>MOLECULE
MOL
   64    63     1     0     1 
SMALL
USER_CHARGES
@<TRIPOS>ATOM
  1 C1      0.000000    0.000000    0.000000 CT    1 MOL    -0.3208 ****
  2 N1      1.448187    0.000000    0.000000 N     1 MOL    -0.5622 ****
  3 C       2.123200    0.475920    1.072365 C     1 MOL     0.8053 ****
  4 O       1.590179    0.696732    2.124447 O     1 MOL    -0.6151 ****
  5 CA      3.650505    0.594143    0.921539 CX    1 MOL     0.0839 ****
  6 C1B     4.132449    1.890391    1.581322 CU    1 MOL    -0.3230 ****
  7 C2B     4.346180   -0.649937    1.537900 CU    1 MOL    -0.0657 ****
  8 CC      4.152147   -0.948901    3.035434 CU    1 MOL    -0.0109 ****
  9 CD      2.871599   -1.697655    3.455197 CU    1 MOL     0.0816 ****
 10 CE      2.687050   -3.031604    2.770508 CM    1 MOL    -0.2354 ****
 11 CF      2.980908   -4.230230    3.247687 CM    1 MOL    -0.2653 ****
 12 CY      3.575032   -4.561451    4.595672 CU    1 MOL     0.1214 ****
 13 CH      2.558773   -5.091894    5.623006 CU    1 MOL    -0.0354 ****
 14 CI      1.887046   -6.396084    5.172689 CU    1 MOL    -0.0984 ****
 15 CJ      0.974995   -7.133451    6.187134 CU    1 MOL     0.1300 ****
 16 C1K     0.384259   -8.360802    5.474328 CU    1 MOL    -0.3561 ****
 17 N2K     1.790890   -7.571471    7.311405 N     1 MOL    -0.7186 ****
 18 C15     1.230541   -8.123117    8.427090 C     1 MOL     0.8537 ****
 19 C16     2.135408   -8.172998    9.636856 CT    1 MOL    -0.3868 ****
 20 O2      0.105724   -8.539353    8.453092 O     1 MOL    -0.6323 ****
 21 C3K    -0.080731   -6.135613    6.714853 C     1 MOL     0.7903 ****
 22 OF      0.188267   -5.390096    7.618056 O     1 MOL    -0.6136 ****
 23 N3     -1.258906   -6.070899    6.057818 N     1 MOL    -0.5650 ****
 24 C18    -2.310695   -5.194187    6.530383 CT    1 MOL    -0.3231 ****
 25 N       4.029136    0.566887   -0.498787 N     1 MOL    -0.7191 ****
 26 C19     3.600369    1.482408   -1.414021 C     1 MOL     0.8539 ****
 27 C20     4.369513    1.495914   -2.718765 CT    1 MOL    -0.3903 ****
 28 O4      2.675195    2.216220   -1.209789 O     1 MOL    -0.6290 ****
 29 H1     -0.403259    1.006147    0.000000 H1    1 MOL     0.1459 ****
 30 H2     -0.364960   -0.516002    0.875939 H1    1 MOL     0.1459 ****
 31 H3     -0.345658   -0.522086   -0.883346 H1    1 MOL     0.1459 ****
 32 H4      1.904244    0.070913   -0.879357 H     1 MOL     0.3572 ****
 33 HB1     3.841584    1.932035    2.619877 HC    1 MOL     0.0997 ****
 34 HB2     5.214643    1.949498    1.513506 HC    1 MOL     0.0997 ****
 35 HB3     3.701331    2.747856    1.085523 HC    1 MOL     0.0997 ****
 36 HB4     5.411423   -0.499541    1.377086 HC    1 MOL     0.0347 ****
 37 HB5     4.070835   -1.522724    0.954197 HC    1 MOL     0.0347 ****
 38 HC1     4.999383   -1.556510    3.339769 HC    1 MOL     0.0243 ****
 39 HC2     4.219060   -0.030180    3.608886 HC    1 MOL     0.0243 ****
 40 HD1     2.002454   -1.080500    3.267925 HC    1 MOL     0.0171 ****
 41 HD2     2.917171   -1.831883    4.530250 HC    1 MOL     0.0171 ****
 42 HE      2.261875   -2.984336    1.781010 HA    1 MOL     0.1313 ****
 43 HF      2.774184   -5.077778    2.613110 HA    1 MOL     0.1359 ****
 44 HG1     4.059750   -3.689299    5.017413 HC    1 MOL     0.0092 ****
 45 HG2     4.358311   -5.305318    4.455211 HC    1 MOL     0.0092 ****
 46 HH1     3.082921   -5.232193    6.564260 HC    1 MOL     0.0318 ****
 47 HH2     1.809887   -4.333443    5.809428 HC    1 MOL     0.0318 ****
 48 HI1     2.650360   -7.108788    4.867831 HC    1 MOL     0.0435 ****
 49 HI2     1.285968   -6.190650    4.294708 HC    1 MOL     0.0435 ****
 50 HK1     1.190419   -9.044639    5.235469 HC    1 MOL     0.1066 ****
 51 HK2    -0.092187   -8.081389    4.540354 HC    1 MOL     0.1066 ****
 52 HK3    -0.325324   -8.881840    6.099427 HC    1 MOL     0.1066 ****
 53 HK      2.606451   -7.028573    7.481208 H     1 MOL     0.3529 ****
 54 H26     1.772092   -8.926504   10.318978 HC    1 MOL     0.1047 ****
 55 H27     2.102024   -7.208090   10.133809 HC    1 MOL     0.1047 ****
 56 H28     3.164657   -8.384989    9.368361 HC    1 MOL     0.1047 ****
 57 H29    -1.529356   -6.842614    5.495125 H     1 MOL     0.3615 ****
 58 H30    -3.114771   -5.197688    5.806248 H1    1 MOL     0.1469 ****
 59 H31    -1.930088   -4.188229    6.629443 H1    1 MOL     0.1469 ****
 60 H32    -2.696637   -5.511172    7.493878 H1    1 MOL     0.1469 ****
 61 H       4.884201    0.100710   -0.706365 H     1 MOL     0.3570 ****
 62 H34     3.749164    1.937150   -3.485218 HC    1 MOL     0.1060 ****
 63 H35     4.676943    0.502131   -3.024433 HC    1 MOL     0.1060 ****
 64 H36     5.259687    2.105468   -2.601144 HC    1 MOL     0.1060 ****
@<TRIPOS>BOND
    1     1     2 1
    2     1    29 1
    3     1    30 1
    4     1    31 1
    5     2     3 1
    6     2    32 1
    7     3     4 1
    8     3     5 1
    9     5     6 1
   10     5     7 1
   11     5    25 1
   12     6    33 1
   13     6    34 1
   14     6    35 1
   15     7     8 1
   16     7    36 1
   17     7    37 1
   18     8     9 1
   19     8    38 1
   20     8    39 1
   21     9    10 1
   22     9    40 1
   23     9    41 1
   24    10    11 1
   25    10    42 1
   26    11    12 1
   27    11    43 1
   28    12    13 1
   29    12    44 1
   30    12    45 1
   31    13    14 1
   32    13    46 1
   33    13    47 1
   34    14    15 1
   35    14    48 1
   36    14    49 1
   37    15    16 1
   38    15    17 1
   39    15    21 1
   40    16    50 1
   41    16    51 1
   42    16    52 1
   43    17    18 1
   44    17    53 1
   45    18    19 1
   46    18    20 1
   47    19    54 1
   48    19    55 1
   49    19    56 1
   50    21    22 1
   51    21    23 1
   52    23    24 1
   53    23    57 1
   54    24    58 1
   55    24    59 1
   56    24    60 1
   57    25    26 1
   58    25    61 1
   59    26    27 1
   60    26    28 1
   61    27    62 1
   62    27    63 1
   63    27    64 1
@<TRIPOS>SUBSTRUCTURE
      1  MOL              1 ****               0 ****  **** 
