@<TRIPOS>MOLECULE
MOL
   64    63     1     0     1 
SMALL
USER_CHARGES
@<TRIPOS>ATOM
  1 C1      0.000000    0.000000    0.000000 CT    1 MOL    -0.3208 ****
  2 N1      1.448187    0.000000    0.000000 N     1 MOL    -0.5622 ****
  3 C       2.123200    0.475920    1.072365 C     1 MOL     0.8053 ****
  4 O       1.590179    0.696732    2.124447 O     1 MOL    -0.6151 ****
  5 CA      3.650505    0.594143    0.921539 CX    1 MOL     0.0839 ****
  6 C1B     4.006037    1.979098    0.370777 CU    1 MOL    -0.3230 ****
  7 C2B     4.344174    0.329828    2.285563 CU    1 MOL    -0.0657 ****
  8 CC      4.025401    1.251408    3.476658 CU    1 MOL    -0.0109 ****
  9 CD      2.748488    0.955490    4.288177 CU    1 MOL     0.0816 ****
 10 CE      2.692837   -0.442224    4.858771 CM    1 MOL    -0.2354 ****
 11 CF      2.997762   -0.823741    6.088495 CM    1 MOL    -0.2653 ****
 12 CY      3.478318    0.044385    7.226555 CU    1 MOL     0.1214 ****
 13 CH      2.396939    0.376458    8.270544 CU    1 MOL    -0.0354 ****
 14 CI      1.833456   -0.874381    8.958150 CU    1 MOL    -0.0984 ****
 15 CJ      0.866813   -0.674855   10.154158 CU    1 MOL     0.1300 ****
 16 C1K     0.404757   -2.066666   10.615480 CU    1 MOL    -0.3561 ****
 17 N2K     1.593953   -0.022362   11.234460 N     1 MOL    -0.7186 ****
 18 C15     0.958708    0.409587   12.362707 C     1 MOL     0.8537 ****
 19 C16     1.747760    1.386244   13.204338 CT    1 MOL    -0.3868 ****
 20 O2     -0.142402    0.045803   12.669888 O     1 MOL    -0.6323 ****
 21 C3K    -0.280178    0.260355    9.708606 C     1 MOL     0.7903 ****
 22 OF     -0.132842    1.452731    9.730095 O     1 MOL    -0.6136 ****
 23 N3     -1.393451   -0.316055    9.206255 N     1 MOL    -0.5650 ****
 24 C18    -2.525572    0.499671    8.817547 CT    1 MOL    -0.3231 ****
 25 N       4.161235   -0.460457    0.033618 N     1 MOL    -0.7191 ****
 26 C19     3.776679   -0.607093   -1.266492 C     1 MOL     0.8539 ****
 27 C20     4.662996   -1.507921   -2.101400 CT    1 MOL    -0.3903 ****
 28 O4      2.802413   -0.073806   -1.716549 O     1 MOL    -0.6290 ****
 29 H1     -0.403259    1.006147    0.000000 H1    1 MOL     0.1459 ****
 30 H2     -0.364960   -0.516002    0.875939 H1    1 MOL     0.1459 ****
 31 H3     -0.345658   -0.522086   -0.883346 H1    1 MOL     0.1459 ****
 32 H4      1.904244    0.070913   -0.879357 H     1 MOL     0.3572 ****
 33 HB1     3.617619    2.762802    1.003132 HC    1 MOL     0.0997 ****
 34 HB2     5.085758    2.076542    0.307956 HC    1 MOL     0.0997 ****
 35 HB3     3.582676    2.112461   -0.614061 HC    1 MOL     0.0997 ****
 36 HB4     5.411370    0.413973    2.092603 HC    1 MOL     0.0347 ****
 37 HB5     4.166720   -0.703285    2.567465 HC    1 MOL     0.0347 ****
 38 HC1     4.868538    1.176725    4.157217 HC    1 MOL     0.0243 ****
 39 HC2     3.994338    2.285061    3.148071 HC    1 MOL     0.0243 ****
 40 HD1     1.872153    1.122752    3.675457 HC    1 MOL     0.0171 ****
 41 HD2     2.699642    1.687830    5.086378 HC    1 MOL     0.0171 ****
 42 HE      2.360337   -1.204671    4.173036 HA    1 MOL     0.1313 ****
 43 HF      2.892102   -1.872090    6.319924 HA    1 MOL     0.1359 ****
 44 HG1     3.879169    0.975834    6.845522 HC    1 MOL     0.0092 ****
 45 HG2     4.305988   -0.461600    7.722070 HC    1 MOL     0.0092 ****
 46 HH1     2.836829    1.052493    8.998450 HC    1 MOL     0.0318 ****
 47 HH2     1.598474    0.930176    7.794434 HC    1 MOL     0.0318 ****
 48 HI1     2.655163   -1.486825    9.323178 HC    1 MOL     0.0435 ****
 49 HI2     1.308027   -1.468358    8.219594 HC    1 MOL     0.0435 ****
 50 HK1     1.261516   -2.606123   11.002172 HC    1 MOL     0.1066 ****
 51 HK2     0.004968   -2.642595    9.787316 HC    1 MOL     0.1066 ****
 52 HK3    -0.334459   -2.001810   11.399758 HC    1 MOL     0.1066 ****
 53 HK      2.363140    0.539776   10.949741 H     1 MOL     0.3529 ****
 54 H26     1.358680    1.379788   14.211133 HC    1 MOL     0.1047 ****
 55 H27     1.621904    2.381484   12.788668 HC    1 MOL     0.1047 ****
 56 H28     2.806573    1.151449   13.217345 HC    1 MOL     0.1047 ****
 57 H29    -1.572838   -1.267573    9.424756 H     1 MOL     0.3615 ****
 58 H30    -3.257275   -0.133286    8.332886 H1    1 MOL     0.1469 ****
 59 H31    -2.204465    1.262366    8.123419 H1    1 MOL     0.1469 ****
 60 H32    -2.984362    0.985522    9.672658 H1    1 MOL     0.1469 ****
 61 H       5.053290   -0.830852    0.275678 H     1 MOL     0.3570 ****
 62 H34     4.096687   -1.867330   -2.948213 HC    1 MOL     0.1060 ****
 63 H35     5.044865   -2.348873   -1.533487 HC    1 MOL     0.1060 ****
 64 H36     5.508076   -0.934688   -2.468884 HC    1 MOL     0.1060 ****
@<TRIPOS>BOND
    1     1     2 1
    2     1    29 1
    3     1    30 1
    4     1    31 1
    5     2     3 1
    6     2    32 1
    7     3     4 1
    8     3     5 1
    9     5     6 1
   10     5     7 1
   11     5    25 1
   12     6    33 1
   13     6    34 1
   14     6    35 1
   15     7     8 1
   16     7    36 1
   17     7    37 1
   18     8     9 1
   19     8    38 1
   20     8    39 1
   21     9    10 1
   22     9    40 1
   23     9    41 1
   24    10    11 1
   25    10    42 1
   26    11    12 1
   27    11    43 1
   28    12    13 1
   29    12    44 1
   30    12    45 1
   31    13    14 1
   32    13    46 1
   33    13    47 1
   34    14    15 1
   35    14    48 1
   36    14    49 1
   37    15    16 1
   38    15    17 1
   39    15    21 1
   40    16    50 1
   41    16    51 1
   42    16    52 1
   43    17    18 1
   44    17    53 1
   45    18    19 1
   46    18    20 1
   47    19    54 1
   48    19    55 1
   49    19    56 1
   50    21    22 1
   51    21    23 1
   52    23    24 1
   53    23    57 1
   54    24    58 1
   55    24    59 1
   56    24    60 1
   57    25    26 1
   58    25    61 1
   59    26    27 1
   60    26    28 1
   61    27    62 1
   62    27    63 1
   63    27    64 1
@<TRIPOS>SUBSTRUCTURE
      1  MOL              1 ****               0 ****  **** 
