@<TRIPOS>MOLECULE
MOL
   64    63     1     0     1 
SMALL
USER_CHARGES
@<TRIPOS>ATOM
  1 C1      0.000000    0.000000    0.000000 CT    1 MOL    -0.3208 ****
  2 N1      1.448187    0.000000    0.000000 N     1 MOL    -0.5622 ****
  3 C       2.123200    0.475920    1.072365 C     1 MOL     0.8053 ****
  4 O       1.590179    0.696732    2.124447 O     1 MOL    -0.6151 ****
  5 CA      3.650505    0.594143    0.921539 CX    1 MOL     0.0839 ****
  6 C1B     4.066212    0.121911   -0.475610 CU    1 MOL    -0.3230 ****
  7 C2B     4.101802    2.056562    1.184719 CU    1 MOL    -0.0657 ****
  8 CC      3.560617    3.179335    0.281317 CU    1 MOL    -0.0109 ****
  9 CD      2.168714    3.754259    0.611023 CU    1 MOL     0.0816 ****
 10 CE      2.045067    4.298182    2.014995 CM    1 MOL    -0.2354 ****
 11 CF      2.139570    5.559949    2.401994 CM    1 MOL    -0.2653 ****
 12 CY      2.395717    6.769419    1.535204 CU    1 MOL     0.1214 ****
 13 CH      1.142186    7.611020    1.235317 CU    1 MOL    -0.0354 ****
 14 CI      0.495016    8.182570    2.503945 CU    1 MOL    -0.0984 ****
 15 CJ     -0.669127    9.193069    2.335689 CU    1 MOL     0.1300 ****
 16 C1K    -1.173993    9.558634    3.741008 CU    1 MOL    -0.3561 ****
 17 N2K    -0.155469   10.387345    1.678885 N     1 MOL    -0.7186 ****
 18 C15    -0.986620   11.390217    1.270849 C     1 MOL     0.8537 ****
 19 C16    -0.377534   12.362173    0.286410 CT    1 MOL    -0.3868 ****
 20 O2     -2.116198   11.498746    1.659972 O     1 MOL    -0.6323 ****
 21 C3K    -1.741169    8.560055    1.419858 C     1 MOL     0.7903 ****
 22 OF     -1.625824    8.613914    0.224984 O     1 MOL    -0.6136 ****
 23 N3     -2.737210    7.868071    2.014030 N     1 MOL    -0.5650 ****
 24 C18    -3.801903    7.292918    1.217895 CT    1 MOL    -0.3231 ****
 25 N       4.330808   -0.197443    1.956918 N     1 MOL    -0.7191 ****
 26 C19     4.181660   -1.545505    2.098887 C     1 MOL     0.8539 ****
 27 C20     5.219154   -2.218559    2.973373 CT    1 MOL    -0.3903 ****
 28 O4      3.289203   -2.155237    1.581308 O     1 MOL    -0.6290 ****
 29 H1     -0.403259    1.006147    0.000000 H1    1 MOL     0.1459 ****
 30 H2     -0.364960   -0.516002    0.875939 H1    1 MOL     0.1459 ****
 31 H3     -0.345658   -0.522086   -0.883346 H1    1 MOL     0.1459 ****
 32 H4      1.904244    0.070913   -0.879357 H     1 MOL     0.3572 ****
 33 HB1     3.556700    0.681550   -1.245112 HC    1 MOL     0.0997 ****
 34 HB2     5.138008    0.248704   -0.595678 HC    1 MOL     0.0997 ****
 35 HB3     3.817897   -0.920813   -0.609749 HC    1 MOL     0.0997 ****
 36 HB4     5.184204    2.052948    1.076952 HC    1 MOL     0.0347 ****
 37 HB5     3.900539    2.297145    2.223898 HC    1 MOL     0.0347 ****
 38 HC1     4.273877    3.995904    0.345300 HC    1 MOL     0.0243 ****
 39 HC2     3.564708    2.856462   -0.754594 HC    1 MOL     0.0243 ****
 40 HD1     1.408950    2.999254    0.455814 HC    1 MOL     0.0171 ****
 41 HD2     1.965768    4.536055   -0.112471 HC    1 MOL     0.0171 ****
 42 HE      1.853661    3.560527    2.777454 HA    1 MOL     0.1313 ****
 43 HF      2.018103    5.763247    3.454456 HA    1 MOL     0.1359 ****
 44 HG1     2.836381    6.469537    0.592149 HC    1 MOL     0.0092 ****
 45 HG2     3.135346    7.398538    2.028917 HC    1 MOL     0.0092 ****
 46 HH1     1.433860    8.408398    0.557461 HC    1 MOL     0.0318 ****
 47 HH2     0.426894    7.006378    0.693473 HC    1 MOL     0.0318 ****
 48 HI1     1.253799    8.681533    3.102959 HC    1 MOL     0.0435 ****
 49 HI2     0.119195    7.360290    3.101408 HC    1 MOL     0.0435 ****
 50 HK1    -0.386060   10.085466    4.266547 HC    1 MOL     0.1066 ****
 51 HK2    -1.410920    8.670109    4.317003 HC    1 MOL     0.1066 ****
 52 HK3    -2.039649   10.202525    3.698792 HC    1 MOL     0.1066 ****
 53 HK      0.639102   10.244286    1.098452 H     1 MOL     0.3529 ****
 54 H26    -0.935652   13.285745    0.310474 HC    1 MOL     0.1047 ****
 55 H27    -0.450776   11.936812   -0.709998 HC    1 MOL     0.1047 ****
 56 H28     0.667717   12.558033    0.499651 HC    1 MOL     0.1047 ****
 57 H29    -2.931120    8.046368    2.971067 H     1 MOL     0.3615 ****
 58 H30    -4.424137    6.684486    1.860979 H1    1 MOL     0.1469 ****
 59 H31    -3.381586    6.669847    0.442175 H1    1 MOL     0.1469 ****
 60 H32    -4.412975    8.057889    0.749746 H1    1 MOL     0.1469 ****
 61 H       5.174977    0.194116    2.311329 H     1 MOL     0.3570 ****
 62 H34     4.816817   -3.153176    3.336124 HC    1 MOL     0.1060 ****
 63 H35     5.514586   -1.597779    3.811766 HC    1 MOL     0.1060 ****
 64 H36     6.102604   -2.429831    2.379503 HC    1 MOL     0.1060 ****
@<TRIPOS>BOND
    1     1     2 1
    2     1    29 1
    3     1    30 1
    4     1    31 1
    5     2     3 1
    6     2    32 1
    7     3     4 1
    8     3     5 1
    9     5     6 1
   10     5     7 1
   11     5    25 1
   12     6    33 1
   13     6    34 1
   14     6    35 1
   15     7     8 1
   16     7    36 1
   17     7    37 1
   18     8     9 1
   19     8    38 1
   20     8    39 1
   21     9    10 1
   22     9    40 1
   23     9    41 1
   24    10    11 1
   25    10    42 1
   26    11    12 1
   27    11    43 1
   28    12    13 1
   29    12    44 1
   30    12    45 1
   31    13    14 1
   32    13    46 1
   33    13    47 1
   34    14    15 1
   35    14    48 1
   36    14    49 1
   37    15    16 1
   38    15    17 1
   39    15    21 1
   40    16    50 1
   41    16    51 1
   42    16    52 1
   43    17    18 1
   44    17    53 1
   45    18    19 1
   46    18    20 1
   47    19    54 1
   48    19    55 1
   49    19    56 1
   50    21    22 1
   51    21    23 1
   52    23    24 1
   53    23    57 1
   54    24    58 1
   55    24    59 1
   56    24    60 1
   57    25    26 1
   58    25    61 1
   59    26    27 1
   60    26    28 1
   61    27    62 1
   62    27    63 1
   63    27    64 1
@<TRIPOS>SUBSTRUCTURE
      1  MOL              1 ****               0 ****  **** 
