@<TRIPOS>MOLECULE
MOL
   64    63     1     0     1 
SMALL
USER_CHARGES
@<TRIPOS>ATOM
  1 C1      0.000000    0.000000    0.000000 CT    1 MOL    -0.3208 ****
  2 N1      1.448187    0.000000    0.000000 N     1 MOL    -0.5622 ****
  3 C       2.123200    0.475920    1.072365 C     1 MOL     0.8053 ****
  4 O       1.590179    0.696732    2.124447 O     1 MOL    -0.6151 ****
  5 CA      3.650505    0.594143    0.921539 CX    1 MOL     0.0839 ****
  6 C1B     4.339321   -0.275904    1.978134 CU    1 MOL    -0.3230 ****
  7 C2B     4.078496    0.188932   -0.515204 CU    1 MOL    -0.0657 ****
  8 CC      3.774798   -1.236390   -1.011044 CU    1 MOL    -0.0109 ****
  9 CD      2.362178   -1.516397   -1.561260 CU    1 MOL     0.0816 ****
 10 CE      1.959295   -0.617606   -2.706746 CM    1 MOL    -0.2354 ****
 11 CF      2.006584   -0.890330   -4.000632 CM    1 MOL    -0.2653 ****
 12 CY      2.476460   -2.168385   -4.652971 CU    1 MOL     0.1214 ****
 13 CH      1.340542   -3.085705   -5.140595 CU    1 MOL    -0.0354 ****
 14 CI      0.455861   -2.419524   -6.202884 CU    1 MOL    -0.0984 ****
 15 CJ     -0.615725   -3.290373   -6.908555 CU    1 MOL     0.1300 ****
 16 C1K    -1.396503   -2.378765   -7.869184 CU    1 MOL    -0.3561 ****
 17 N2K     0.060637   -4.331609   -7.670063 N     1 MOL    -0.7186 ****
 18 C15    -0.635006   -5.335725   -8.279070 C     1 MOL     0.8537 ****
 19 C16     0.197589   -6.526596   -8.695501 CT    1 MOL    -0.3868 ****
 20 O2     -1.817755   -5.284028   -8.472914 O     1 MOL    -0.6323 ****
 21 C3K    -1.487011   -3.969606   -5.827709 C     1 MOL     0.7903 ****
 22 OF     -1.119032   -4.986337   -5.303516 O     1 MOL    -0.6136 ****
 23 N3     -2.606447   -3.324258   -5.434809 N     1 MOL    -0.5650 ****
 24 C18    -3.494268   -3.928944   -4.463041 CT    1 MOL    -0.3231 ****
 25 N       4.071816    1.996427    1.053934 N     1 MOL    -0.7191 ****
 26 C19     3.856284    2.749215    2.170414 C     1 MOL     0.8539 ****
 27 C20     4.664138    4.027985    2.249415 CT    1 MOL    -0.3903 ****
 28 O4      3.076526    2.432032    3.023357 O     1 MOL    -0.6290 ****
 29 H1     -0.403259    1.006147    0.000000 H1    1 MOL     0.1459 ****
 30 H2     -0.364960   -0.516002    0.875939 H1    1 MOL     0.1459 ****
 31 H3     -0.345658   -0.522086   -0.883346 H1    1 MOL     0.1459 ****
 32 H4      1.904244    0.070913   -0.879357 H     1 MOL     0.3572 ****
 33 HB1     4.021540   -1.304787    1.905010 HC    1 MOL     0.0997 ****
 34 HB2     5.415427   -0.226530    1.841042 HC    1 MOL     0.0997 ****
 35 HB3     4.094551    0.073026    2.970738 HC    1 MOL     0.0997 ****
 36 HB4     5.158510    0.314900   -0.545581 HC    1 MOL     0.0347 ****
 37 HB5     3.668330    0.911907   -1.213310 HC    1 MOL     0.0347 ****
 38 HC1     4.481938   -1.441135   -1.809575 HC    1 MOL     0.0243 ****
 39 HC2     3.989258   -1.955446   -0.227246 HC    1 MOL     0.0243 ****
 40 HD1     1.630799   -1.428512   -0.768338 HC    1 MOL     0.0171 ****
 41 HD2     2.340609   -2.554320   -1.874446 HC    1 MOL     0.0171 ****
 42 HE      1.588706    0.353137   -2.419629 HA    1 MOL     0.1313 ****
 43 HF      1.670441   -0.121886   -4.679059 HA    1 MOL     0.1359 ****
 44 HG1     3.098302   -2.733040   -3.968908 HC    1 MOL     0.0092 ****
 45 HG2     3.112583   -1.911400   -5.499081 HC    1 MOL     0.0092 ****
 46 HH1     1.792861   -3.994068   -5.528741 HC    1 MOL     0.0318 ****
 47 HH2     0.739131   -3.390680   -4.294353 HC    1 MOL     0.0318 ****
 48 HI1     1.084499   -2.005503   -6.988336 HC    1 MOL     0.0435 ****
 49 HI2    -0.062311   -1.583862   -5.747345 HC    1 MOL     0.0435 ****
 50 HK1    -0.722970   -2.034933   -8.645530 HC    1 MOL     0.1066 ****
 51 HK2    -1.776402   -1.501109   -7.356566 HC    1 MOL     0.1066 ****
 52 HK3    -2.214103   -2.903224   -8.340577 HC    1 MOL     0.1066 ****
 53 HK      0.955774   -4.595299   -7.326686 H     1 MOL     0.3529 ****
 54 H26    -0.325461   -7.070963   -9.466957 HC    1 MOL     0.1047 ****
 55 H27     0.325107   -7.177219   -7.835527 HC    1 MOL     0.1047 ****
 56 H28     1.179025   -6.233785   -9.052470 HC    1 MOL     0.1047 ****
 57 H29    -2.993821   -2.638884   -6.039385 H     1 MOL     0.3615 ****
 58 H30    -4.256512   -3.208705   -4.196281 H1    1 MOL     0.1469 ****
 59 H31    -2.937351   -4.197017   -3.577261 H1    1 MOL     0.1469 ****
 60 H32    -3.969191   -4.823357   -4.853204 H1    1 MOL     0.1469 ****
 61 H       4.832632    2.272783    0.473992 H     1 MOL     0.3570 ****
 62 H34     4.166598    4.714504    2.918832 HC    1 MOL     0.1060 ****
 63 H35     4.792953    4.492884    1.278423 HC    1 MOL     0.1060 ****
 64 H36     5.646932    3.804105    2.651652 HC    1 MOL     0.1060 ****
@<TRIPOS>BOND
    1     1     2 1
    2     1    29 1
    3     1    30 1
    4     1    31 1
    5     2     3 1
    6     2    32 1
    7     3     4 1
    8     3     5 1
    9     5     6 1
   10     5     7 1
   11     5    25 1
   12     6    33 1
   13     6    34 1
   14     6    35 1
   15     7     8 1
   16     7    36 1
   17     7    37 1
   18     8     9 1
   19     8    38 1
   20     8    39 1
   21     9    10 1
   22     9    40 1
   23     9    41 1
   24    10    11 1
   25    10    42 1
   26    11    12 1
   27    11    43 1
   28    12    13 1
   29    12    44 1
   30    12    45 1
   31    13    14 1
   32    13    46 1
   33    13    47 1
   34    14    15 1
   35    14    48 1
   36    14    49 1
   37    15    16 1
   38    15    17 1
   39    15    21 1
   40    16    50 1
   41    16    51 1
   42    16    52 1
   43    17    18 1
   44    17    53 1
   45    18    19 1
   46    18    20 1
   47    19    54 1
   48    19    55 1
   49    19    56 1
   50    21    22 1
   51    21    23 1
   52    23    24 1
   53    23    57 1
   54    24    58 1
   55    24    59 1
   56    24    60 1
   57    25    26 1
   58    25    61 1
   59    26    27 1
   60    26    28 1
   61    27    62 1
   62    27    63 1
   63    27    64 1
@<TRIPOS>SUBSTRUCTURE
      1  MOL              1 ****               0 ****  **** 
