@<TRIPOS>MOLECULE
MOL
   64    63     1     0     1 
SMALL
USER_CHARGES
@<TRIPOS>ATOM
  1 C1      0.000000    0.000000    0.000000 CT    1 MOL    -0.3208 ****
  2 N1      1.448187    0.000000    0.000000 N     1 MOL    -0.5622 ****
  3 C       2.123200    0.475920    1.072365 C     1 MOL     0.8053 ****
  4 O       1.590179    0.696732    2.124447 O     1 MOL    -0.6151 ****
  5 CA      3.650505    0.594143    0.921539 CX    1 MOL     0.0839 ****
  6 C1B     4.047245    2.072943    0.861618 CU    1 MOL    -0.3230 ****
  7 C2B     4.361286   -0.137898    2.092226 CU    1 MOL    -0.0657 ****
  8 CC      4.102236    0.332900    3.534750 CU    1 MOL    -0.0109 ****
  9 CD      2.831799   -0.184118    4.238539 CU    1 MOL     0.0816 ****
 10 CE      2.734579   -1.690322    4.303147 CM    1 MOL    -0.2354 ****
 11 CF      3.049773   -2.475660    5.320326 CM    1 MOL    -0.2653 ****
 12 CY      3.586184   -2.060204    6.669183 CU    1 MOL     0.1214 ****
 13 CH      2.539775   -2.071530    7.798104 CU    1 MOL    -0.0354 ****
 14 CI      1.943182   -3.464743    8.038830 CU    1 MOL    -0.0984 ****
 15 CJ      1.009451   -3.655646    9.262083 CU    1 MOL     0.1300 ****
 16 C1K     0.504200   -5.107418    9.239006 CU    1 MOL    -0.3561 ****
 17 N2K     1.782820   -3.430398   10.475629 N     1 MOL    -0.7186 ****
 18 C15     1.187653   -3.389369   11.703289 C     1 MOL     0.8537 ****
 19 C16     2.030360   -2.780079   12.800292 CT    1 MOL    -0.3868 ****
 20 O2      0.079977   -3.803887   11.904215 O     1 MOL    -0.6323 ****
 21 C3K    -0.109921   -2.591931    9.196946 C     1 MOL     0.7903 ****
 22 OF      0.083156   -1.482603    9.616520 O     1 MOL    -0.6136 ****
 23 N3     -1.254369   -2.930886    8.565023 N     1 MOL    -0.5650 ****
 24 C18    -2.362278   -1.999239    8.512363 CT    1 MOL    -0.3231 ****
 25 N       4.102450   -0.110273   -0.287168 N     1 MOL    -0.7191 ****
 26 C19     3.686136    0.204796   -1.546964 C     1 MOL     0.8539 ****
 27 C20     4.520259   -0.383942   -2.665779 CT    1 MOL    -0.3903 ****
 28 O4      2.723920    0.887220   -1.758101 O     1 MOL    -0.6290 ****
 29 H1     -0.403259    1.006147    0.000000 H1    1 MOL     0.1459 ****
 30 H2     -0.364960   -0.516002    0.875939 H1    1 MOL     0.1459 ****
 31 H3     -0.345658   -0.522086   -0.883346 H1    1 MOL     0.1459 ****
 32 H4      1.904244    0.070913   -0.879357 H     1 MOL     0.3572 ****
 33 HB1     3.701959    2.606011    1.734285 HC    1 MOL     0.0997 ****
 34 HB2     5.128388    2.154670    0.800880 HC    1 MOL     0.0997 ****
 35 HB3     3.609266    2.545213   -0.005596 HC    1 MOL     0.0997 ****
 36 HB4     5.426754   -0.024087    1.905017 HC    1 MOL     0.0347 ****
 37 HB5     4.150380   -1.199737    2.012864 HC    1 MOL     0.0347 ****
 38 HC1     4.955626    0.007050    4.122258 HC    1 MOL     0.0243 ****
 39 HC2     4.103889    1.417141    3.577097 HC    1 MOL     0.0243 ****
 40 HD1     1.950155    0.206668    3.747260 HC    1 MOL     0.0171 ****
 41 HD2     2.827195    0.234491    5.238829 HC    1 MOL     0.0171 ****
 42 HE      2.359341   -2.164423    3.410657 HA    1 MOL     0.1313 ****
 43 HF      2.908982   -3.536747    5.186036 HA    1 MOL     0.1359 ****
 44 HG1     4.014383   -1.066709    6.613701 HC    1 MOL     0.0092 ****
 45 HG2     4.403910   -2.728170    6.937026 HC    1 MOL     0.0092 ****
 46 HH1     3.019869   -1.696097    8.697511 HC    1 MOL     0.0318 ****
 47 HH2     1.753442   -1.366132    7.563746 HC    1 MOL     0.0318 ****
 48 HI1     2.748229   -4.188272    8.148092 HC    1 MOL     0.0435 ****
 49 HI2     1.380537   -3.756945    7.159968 HC    1 MOL     0.0435 ****
 50 HK1     1.347491   -5.770711    9.392247 HC    1 MOL     0.1066 ****
 51 HK2     0.065938   -5.355837    8.277967 HC    1 MOL     0.1066 ****
 52 HK3    -0.215850   -5.291582   10.022172 HC    1 MOL     0.1066 ****
 53 HK      2.566901   -2.827452   10.373713 H     1 MOL     0.3529 ****
 54 H26     1.661941   -3.117019   13.757266 HC    1 MOL     0.1047 ****
 55 H27     1.934066   -1.699615   12.750785 HC    1 MOL     0.1047 ****
 56 H28     3.079501   -3.035835   12.698927 HC    1 MOL     0.1047 ****
 57 H29    -1.465391   -3.894422    8.453763 H     1 MOL     0.3615 ****
 58 H30    -3.127308   -2.408397    7.865648 H1    1 MOL     0.1469 ****
 59 H31    -2.026570   -1.055681    8.107858 H1    1 MOL     0.1469 ****
 60 H32    -2.784675   -1.819827    9.495799 H1    1 MOL     0.1469 ****
 61 H       4.984495   -0.566513   -0.213759 H     1 MOL     0.3570 ****
 62 H34     3.923502   -0.417670   -3.565622 HC    1 MOL     0.1060 ****
 63 H35     4.881312   -1.378505   -2.429059 HC    1 MOL     0.1060 ****
 64 H36     5.378895    0.255364   -2.844196 HC    1 MOL     0.1060 ****
@<TRIPOS>BOND
    1     1     2 1
    2     1    29 1
    3     1    30 1
    4     1    31 1
    5     2     3 1
    6     2    32 1
    7     3     4 1
    8     3     5 1
    9     5     6 1
   10     5     7 1
   11     5    25 1
   12     6    33 1
   13     6    34 1
   14     6    35 1
   15     7     8 1
   16     7    36 1
   17     7    37 1
   18     8     9 1
   19     8    38 1
   20     8    39 1
   21     9    10 1
   22     9    40 1
   23     9    41 1
   24    10    11 1
   25    10    42 1
   26    11    12 1
   27    11    43 1
   28    12    13 1
   29    12    44 1
   30    12    45 1
   31    13    14 1
   32    13    46 1
   33    13    47 1
   34    14    15 1
   35    14    48 1
   36    14    49 1
   37    15    16 1
   38    15    17 1
   39    15    21 1
   40    16    50 1
   41    16    51 1
   42    16    52 1
   43    17    18 1
   44    17    53 1
   45    18    19 1
   46    18    20 1
   47    19    54 1
   48    19    55 1
   49    19    56 1
   50    21    22 1
   51    21    23 1
   52    23    24 1
   53    23    57 1
   54    24    58 1
   55    24    59 1
   56    24    60 1
   57    25    26 1
   58    25    61 1
   59    26    27 1
   60    26    28 1
   61    27    62 1
   62    27    63 1
   63    27    64 1
@<TRIPOS>SUBSTRUCTURE
      1  MOL              1 ****               0 ****  **** 
