@<TRIPOS>MOLECULE
MOL
   64    63     1     0     1 
SMALL
USER_CHARGES
@<TRIPOS>ATOM
  1 C1      0.000000    0.000000    0.000000 CT    1 MOL    -0.3208 ****
  2 N1      1.448187    0.000000    0.000000 N     1 MOL    -0.5622 ****
  3 C       2.123200    0.475920    1.072365 C     1 MOL     0.8053 ****
  4 O       1.590179    0.696732    2.124447 O     1 MOL    -0.6151 ****
  5 CA      3.650505    0.594143    0.921539 CX    1 MOL     0.0839 ****
  6 C1B     4.019318    0.612970   -0.565560 CU    1 MOL    -0.3230 ****
  7 C2B     4.162481    1.866406    1.650120 CU    1 MOL    -0.0657 ****
  8 CC      3.646155    3.244503    1.198580 CU    1 MOL    -0.0109 ****
  9 CD      2.284191    3.713171    1.748163 CU    1 MOL     0.0816 ****
 10 CE      2.210036    3.750972    3.256589 CM    1 MOL    -0.2354 ****
 11 CF      2.360431    4.802854    4.045057 CM    1 MOL    -0.2653 ****
 12 CY      2.644743    6.226954    3.631704 CU    1 MOL     0.1214 ****
 13 CH      1.418337    7.156254    3.675231 CU    1 MOL    -0.0354 ****
 14 CI      0.819440    7.281156    5.082581 CU    1 MOL    -0.0984 ****
 15 CJ     -0.308540    8.321912    5.304244 CU    1 MOL     0.1300 ****
 16 C1K    -0.770326    8.202615    6.765741 CU    1 MOL    -0.3561 ****
 17 N2K     0.236748    9.652927    5.074913 N     1 MOL    -0.7186 ****
 18 C15    -0.563734   10.758366    5.057833 C     1 MOL     0.8537 ****
 19 C16     0.061735   11.988964    4.442023 CT    1 MOL    -0.3868 ****
 20 O2     -1.680180   10.760823    5.496791 O     1 MOL    -0.6323 ****
 21 C3K    -1.422391    8.069061    4.263030 C     1 MOL     0.7903 ****
 22 OF     -1.329483    8.522389    3.154071 O     1 MOL    -0.6136 ****
 23 N3     -2.431747    7.245457    4.619200 N     1 MOL    -0.5650 ****
 24 C18    -3.533609    7.006110    3.709906 CT    1 MOL    -0.3231 ****
 25 N       4.321133   -0.521494    1.604944 N     1 MOL    -0.7191 ****
 26 C19     4.123649   -1.832668    1.286361 C     1 MOL     0.8539 ****
 27 C20     5.152368   -2.792533    1.847177 CT    1 MOL    -0.3903 ****
 28 O4      3.198229   -2.204158    0.621731 O     1 MOL    -0.6290 ****
 29 H1     -0.403259    1.006147    0.000000 H1    1 MOL     0.1459 ****
 30 H2     -0.364960   -0.516002    0.875939 H1    1 MOL     0.1459 ****
 31 H3     -0.345658   -0.522086   -0.883346 H1    1 MOL     0.1459 ****
 32 H4      1.904244    0.070913   -0.879357 H     1 MOL     0.3572 ****
 33 HB1     3.515907    1.415279   -1.083065 HC    1 MOL     0.0997 ****
 34 HB2     5.092493    0.741970   -0.669925 HC    1 MOL     0.0997 ****
 35 HB3     3.728761   -0.314477   -1.037093 HC    1 MOL     0.0997 ****
 36 HB4     5.241535    1.868329    1.512786 HC    1 MOL     0.0347 ****
 37 HB5     3.991779    1.745258    2.715233 HC    1 MOL     0.0347 ****
 38 HC1     4.391172    3.969750    1.512563 HC    1 MOL     0.0243 ****
 39 HC2     3.616800    3.292885    0.114988 HC    1 MOL     0.0243 ****
 40 HD1     1.493197    3.078142    1.370762 HC    1 MOL     0.0171 ****
 41 HD2     2.096465    4.699818    1.339358 HC    1 MOL     0.0171 ****
 42 HE      2.006256    2.803982    3.729663 HA    1 MOL     0.1313 ****
 43 HF      2.268301    4.639836    5.107459 HA    1 MOL     0.1359 ****
 44 HG1     3.054324    6.252770    2.629185 HC    1 MOL     0.0092 ****
 45 HG2     3.417730    6.629199    4.285374 HC    1 MOL     0.0092 ****
 46 HH1     1.726293    8.127737    3.298725 HC    1 MOL     0.0318 ****
 47 HH2     0.669615    6.792671    2.983817 HC    1 MOL     0.0318 ****
 48 HI1     1.608752    7.524711    5.790537 HC    1 MOL     0.0435 ****
 49 HI2     0.424825    6.316014    5.377760 HC    1 MOL     0.0435 ****
 50 HK1     0.047671    8.496492    7.413118 HC    1 MOL     0.1066 ****
 51 HK2    -1.029139    7.178479    7.013819 HC    1 MOL     0.1066 ****
 52 HK3    -1.611497    8.847281    6.972079 HC    1 MOL     0.1066 ****
 53 HK      1.013280    9.692707    4.455133 H     1 MOL     0.3529 ****
 54 H26    -0.460175   12.865128    4.795587 HC    1 MOL     0.1047 ****
 55 H27    -0.047981   11.929814    3.363325 HC    1 MOL     0.1047 ****
 56 H28     1.117824   12.070394    4.675319 HC    1 MOL     0.1047 ****
 57 H29    -2.599152    7.093459    5.585731 H     1 MOL     0.3615 ****
 58 H30    -4.165325    6.233619    4.128371 H1    1 MOL     0.1469 ****
 59 H31    -3.153258    6.671839    2.755850 H1    1 MOL     0.1469 ****
 60 H32    -4.124510    7.901974    3.548605 H1    1 MOL     0.1469 ****
 61 H       5.186667   -0.298254    2.043763 H     1 MOL     0.3570 ****
 62 H34     4.722193   -3.782752    1.884442 HC    1 MOL     0.1060 ****
 63 H35     5.488289   -2.502410    2.836387 HC    1 MOL     0.1060 ****
 64 H36     6.014822   -2.814881    1.188789 HC    1 MOL     0.1060 ****
@<TRIPOS>BOND
    1     1     2 1
    2     1    29 1
    3     1    30 1
    4     1    31 1
    5     2     3 1
    6     2    32 1
    7     3     4 1
    8     3     5 1
    9     5     6 1
   10     5     7 1
   11     5    25 1
   12     6    33 1
   13     6    34 1
   14     6    35 1
   15     7     8 1
   16     7    36 1
   17     7    37 1
   18     8     9 1
   19     8    38 1
   20     8    39 1
   21     9    10 1
   22     9    40 1
   23     9    41 1
   24    10    11 1
   25    10    42 1
   26    11    12 1
   27    11    43 1
   28    12    13 1
   29    12    44 1
   30    12    45 1
   31    13    14 1
   32    13    46 1
   33    13    47 1
   34    14    15 1
   35    14    48 1
   36    14    49 1
   37    15    16 1
   38    15    17 1
   39    15    21 1
   40    16    50 1
   41    16    51 1
   42    16    52 1
   43    17    18 1
   44    17    53 1
   45    18    19 1
   46    18    20 1
   47    19    54 1
   48    19    55 1
   49    19    56 1
   50    21    22 1
   51    21    23 1
   52    23    24 1
   53    23    57 1
   54    24    58 1
   55    24    59 1
   56    24    60 1
   57    25    26 1
   58    25    61 1
   59    26    27 1
   60    26    28 1
   61    27    62 1
   62    27    63 1
   63    27    64 1
@<TRIPOS>SUBSTRUCTURE
      1  MOL              1 ****               0 ****  **** 
