@<TRIPOS>MOLECULE
MOL
   64    63     1     0     1 
SMALL
USER_CHARGES
@<TRIPOS>ATOM
  1 C1      0.000000    0.000000    0.000000 CT    1 MOL    -0.3208 ****
  2 N1      1.448187    0.000000    0.000000 N     1 MOL    -0.5622 ****
  3 C       2.123200    0.475920    1.072365 C     1 MOL     0.8053 ****
  4 O       1.590179    0.696732    2.124447 O     1 MOL    -0.6151 ****
  5 CA      3.650505    0.594143    0.921539 CX    1 MOL     0.0839 ****
  6 C1B     4.124372   -0.307438   -0.223207 CU    1 MOL    -0.3230 ****
  7 C2B     4.050635    2.075279    0.681259 CU    1 MOL    -0.0657 ****
  8 CC      3.506516    2.803948   -0.560760 CU    1 MOL    -0.0109 ****
  9 CD      2.088696    3.403100   -0.474516 CU    1 MOL     0.0816 ****
 10 CE      1.904324    4.385515    0.658244 CM    1 MOL    -0.2354 ****
 11 CF      1.949816    5.706396    0.595292 CM    1 MOL    -0.2653 ****
 12 CY      2.198602    6.559357   -0.625494 CU    1 MOL     0.1214 ****
 13 CH      0.931542    7.201099   -1.219035 CU    1 MOL    -0.0354 ****
 14 CI      0.227686    8.143666   -0.233606 CU    1 MOL    -0.0984 ****
 15 CJ     -0.959183    8.992196   -0.758948 CU    1 MOL     0.1300 ****
 16 C1K    -1.519304    9.792876    0.427908 CU    1 MOL    -0.3561 ****
 17 N2K    -0.459436    9.911854   -1.771871 N     1 MOL    -0.7186 ****
 18 C15    -1.305698   10.684643   -2.513285 C     1 MOL     0.8537 ****
 19 C16    -0.693656   11.287908   -3.756780 CT    1 MOL    -0.3868 ****
 20 O2     -2.449862   10.875495   -2.207333 O     1 MOL    -0.6323 ****
 21 C3K    -1.982491    8.045899   -1.426846 C     1 MOL     0.7903 ****
 22 OF     -1.830417    7.695975   -2.566301 O     1 MOL    -0.6136 ****
 23 N3     -2.976683    7.558811   -0.653343 N     1 MOL    -0.5650 ****
 24 C18    -3.998168    6.707751   -1.228206 CT    1 MOL    -0.3231 ****
 25 N       4.319794    0.226835    2.177949 N     1 MOL    -0.7191 ****
 26 C19     4.205205   -0.997978    2.766485 C     1 MOL     0.8539 ****
 27 C20     5.233093   -1.294775    3.838622 CT    1 MOL    -0.3903 ****
 28 O4      3.347845   -1.780576    2.468804 O     1 MOL    -0.6290 ****
 29 H1     -0.403259    1.006147    0.000000 H1    1 MOL     0.1459 ****
 30 H2     -0.364960   -0.516002    0.875939 H1    1 MOL     0.1459 ****
 31 H3     -0.345658   -0.522086   -0.883346 H1    1 MOL     0.1459 ****
 32 H4      1.904244    0.070913   -0.879357 H     1 MOL     0.3572 ****
 33 HB1     3.623879   -0.061555   -1.147318 HC    1 MOL     0.0997 ****
 34 HB2     5.195357   -0.188093   -0.357320 HC    1 MOL     0.0997 ****
 35 HB3     3.910752   -1.342571   -0.000070 HC    1 MOL     0.0997 ****
 36 HB4     5.135593    2.076608    0.603244 HC    1 MOL     0.0347 ****
 37 HB5     3.809212    2.645952    1.572510 HC    1 MOL     0.0347 ****
 38 HC1     4.193441    3.620428   -0.763525 HC    1 MOL     0.0243 ****
 39 HC2     3.553226    2.149512   -1.424997 HC    1 MOL     0.0243 ****
 40 HD1     1.356461    2.611805   -0.379397 HC    1 MOL     0.0171 ****
 41 HD2     1.886580    3.885096   -1.424602 HC    1 MOL     0.0171 ****
 42 HE      1.709928    3.943192    1.621922 HA    1 MOL     0.1313 ****
 43 HF      1.788767    6.249562    1.513330 HA    1 MOL     0.1359 ****
 44 HG1     2.677827    5.974640   -1.401326 HC    1 MOL     0.0092 ****
 45 HG2     2.903483    7.346268   -0.359960 HC    1 MOL     0.0092 ****
 46 HH1     1.221666    7.732059   -2.121412 HC    1 MOL     0.0318 ****
 47 HH2     0.251813    6.421814   -1.537646 HC    1 MOL     0.0318 ****
 48 HI1     0.952084    8.844640    0.175559 HC    1 MOL     0.0435 ****
 49 HI2    -0.143204    7.558844    0.599925 HC    1 MOL     0.0435 ****
 50 HK1    -0.764228   10.496258    0.759111 HC    1 MOL     0.1066 ****
 51 HK2    -1.748823    9.143798    1.266598 HC    1 MOL     0.1066 ****
 52 HK3    -2.401414   10.350869    0.151747 HC    1 MOL     0.1066 ****
 53 HK      0.357180    9.610940   -2.252809 H     1 MOL     0.3529 ****
 54 H26    -1.278733   12.142997   -4.059384 HC    1 MOL     0.1047 ****
 55 H27    -0.722514   10.547569   -4.550625 HC    1 MOL     0.1047 ****
 56 H28     0.338102   11.584127   -3.601502 HC    1 MOL     0.1047 ****
 57 H29    -3.206318    8.043374    0.181987 H     1 MOL     0.3615 ****
 58 H30    -4.622889    6.330027   -0.429477 H1    1 MOL     0.1469 ****
 59 H31    -3.535301    5.875156   -1.737290 H1    1 MOL     0.1469 ****
 60 H32    -4.615746    7.244915   -1.940811 H1    1 MOL     0.1469 ****
 61 H       5.140463    0.747201    2.395361 H     1 MOL     0.3570 ****
 62 H34     4.846503   -2.065756    4.489092 HC    1 MOL     0.1060 ****
 63 H35     5.483359   -0.415818    4.422019 HC    1 MOL     0.1060 ****
 64 H36     6.140908   -1.660981    3.370043 HC    1 MOL     0.1060 ****
@<TRIPOS>BOND
    1     1     2 1
    2     1    29 1
    3     1    30 1
    4     1    31 1
    5     2     3 1
    6     2    32 1
    7     3     4 1
    8     3     5 1
    9     5     6 1
   10     5     7 1
   11     5    25 1
   12     6    33 1
   13     6    34 1
   14     6    35 1
   15     7     8 1
   16     7    36 1
   17     7    37 1
   18     8     9 1
   19     8    38 1
   20     8    39 1
   21     9    10 1
   22     9    40 1
   23     9    41 1
   24    10    11 1
   25    10    42 1
   26    11    12 1
   27    11    43 1
   28    12    13 1
   29    12    44 1
   30    12    45 1
   31    13    14 1
   32    13    46 1
   33    13    47 1
   34    14    15 1
   35    14    48 1
   36    14    49 1
   37    15    16 1
   38    15    17 1
   39    15    21 1
   40    16    50 1
   41    16    51 1
   42    16    52 1
   43    17    18 1
   44    17    53 1
   45    18    19 1
   46    18    20 1
   47    19    54 1
   48    19    55 1
   49    19    56 1
   50    21    22 1
   51    21    23 1
   52    23    24 1
   53    23    57 1
   54    24    58 1
   55    24    59 1
   56    24    60 1
   57    25    26 1
   58    25    61 1
   59    26    27 1
   60    26    28 1
   61    27    62 1
   62    27    63 1
   63    27    64 1
@<TRIPOS>SUBSTRUCTURE
      1  MOL              1 ****               0 ****  **** 
