@<TRIPOS>MOLECULE
MOL
   64    63     1     0     1 
SMALL
USER_CHARGES
@<TRIPOS>ATOM
  1 C1      0.000000    0.000000    0.000000 CT    1 MOL    -0.3208 ****
  2 N1      1.448187    0.000000    0.000000 N     1 MOL    -0.5622 ****
  3 C       2.123200    0.475920    1.072365 C     1 MOL     0.8053 ****
  4 O       1.590179    0.696732    2.124447 O     1 MOL    -0.6151 ****
  5 CA      3.650505    0.594143    0.921539 CX    1 MOL     0.0839 ****
  6 C1B     4.294642   -0.780398    1.130265 CU    1 MOL    -0.3230 ****
  7 C2B     4.005947    1.182714   -0.470886 CU    1 MOL    -0.0657 ****
  8 CC      3.574966    0.419714   -1.736477 CU    1 MOL    -0.0109 ****
  9 CD      2.130192    0.620504   -2.235423 CU    1 MOL     0.0816 ****
 10 CE      1.770907    2.061043   -2.514781 CM    1 MOL    -0.2354 ****
 11 CF      1.761538    2.677115   -3.685731 CM    1 MOL    -0.2653 ****
 12 CY      2.109060    2.092290   -5.033678 CU    1 MOL     0.1214 ****
 13 CH      0.890148    1.751466   -5.909838 CU    1 MOL    -0.0354 ****
 14 CI      0.034230    2.982041   -6.238478 CU    1 MOL    -0.0984 ****
 15 CJ     -1.122633    2.813427   -7.257244 CU    1 MOL     0.1300 ****
 16 C1K    -1.852485    4.162641   -7.359174 CU    1 MOL    -0.3561 ****
 17 N2K    -0.553143    2.470837   -8.553332 N     1 MOL    -0.7186 ****
 18 C15    -1.343622    2.121155   -9.609704 C     1 MOL     0.8537 ****
 19 C16    -0.621370    1.435983  -10.747112 CT    1 MOL    -0.3868 ****
 20 O2     -2.523064    2.338206   -9.640459 O     1 MOL    -0.6323 ****
 21 C3K    -2.016874    1.640257   -6.796018 C     1 MOL     0.7903 ****
 22 OF     -1.718438    0.508131   -7.066490 O     1 MOL    -0.6136 ****
 23 N3     -3.069638    1.934781   -6.002970 N     1 MOL    -0.5650 ****
 24 C18    -3.977235    0.889329   -5.576942 CT    1 MOL    -0.3231 ****
 25 N       4.187135    1.566592    1.884763 N     1 MOL    -0.7191 ****
 26 C19     4.062944    1.439991    3.236880 C     1 MOL     0.8539 ****
 27 C20     4.973311    2.334347    4.052649 CT    1 MOL    -0.3903 ****
 28 O4      3.283088    0.686289    3.746683 O     1 MOL    -0.6290 ****
 29 H1     -0.403259    1.006147    0.000000 H1    1 MOL     0.1459 ****
 30 H2     -0.364960   -0.516002    0.875939 H1    1 MOL     0.1459 ****
 31 H3     -0.345658   -0.522086   -0.883346 H1    1 MOL     0.1459 ****
 32 H4      1.904244    0.070913   -0.879357 H     1 MOL     0.3572 ****
 33 HB1     3.892920   -1.508872    0.442604 HC    1 MOL     0.0997 ****
 34 HB2     5.367187   -0.703421    0.978738 HC    1 MOL     0.0997 ****
 35 HB3     4.105385   -1.136385    2.132453 HC    1 MOL     0.0997 ****
 36 HB4     5.091416    1.250045   -0.491990 HC    1 MOL     0.0347 ****
 37 HB5     3.637108    2.202535   -0.517824 HC    1 MOL     0.0347 ****
 38 HC1     4.241737    0.741355   -2.531198 HC    1 MOL     0.0243 ****
 39 HC2     3.751407   -0.643067   -1.607097 HC    1 MOL     0.0243 ****
 40 HD1     1.429678    0.213864   -1.517588 HC    1 MOL     0.0171 ****
 41 HD2     2.016486    0.025249   -3.134632 HC    1 MOL     0.0171 ****
 42 HE      1.487754    2.639124   -1.650049 HA    1 MOL     0.1313 ****
 43 HF      1.470652    3.715902   -3.693968 HA    1 MOL     0.1359 ****
 44 HG1     2.701228    1.193389   -4.912098 HC    1 MOL     0.0092 ****
 45 HG2     2.741117    2.801909   -5.566161 HC    1 MOL     0.0092 ****
 46 HH1     1.257086    1.282179   -6.818409 HC    1 MOL     0.0318 ****
 47 HH2     0.288802    1.003365   -5.410280 HC    1 MOL     0.0318 ****
 48 HI1     0.673135    3.773719   -6.623939 HC    1 MOL     0.0435 ****
 49 HI2    -0.402404    3.355407   -5.319621 HC    1 MOL     0.0435 ****
 50 HK1    -1.174277    4.892603   -7.785519 HC    1 MOL     0.1066 ****
 51 HK2    -2.146434    4.525485   -6.379726 HC    1 MOL     0.1066 ****
 52 HK3    -2.722054    4.098554   -7.995949 HC    1 MOL     0.1066 ****
 53 HK      0.326581    2.008449   -8.521785 H     1 MOL     0.3529 ****
 54 H26    -1.207054    1.535222  -11.648326 HC    1 MOL     0.1047 ****
 55 H27    -0.523998    0.380927  -10.509411 HC    1 MOL     0.1047 ****
 56 H28     0.370667    1.844675  -10.905908 HC    1 MOL     0.1047 ****
 57 H29    -3.416317    2.864902   -6.003609 H     1 MOL     0.3615 ****
 58 H30    -4.671409    1.305871   -4.858933 H1    1 MOL     0.1469 ****
 59 H31    -3.420419    0.091957   -5.107069 H1    1 MOL     0.1469 ****
 60 H32    -4.533102    0.473907   -6.411321 H1    1 MOL     0.1469 ****
 61 H       4.952085    2.115221    1.560103 H     1 MOL     0.3570 ****
 62 H34     4.550878    2.455541    5.039480 HC    1 MOL     0.1060 ****
 63 H35     5.113379    3.306301    3.593044 HC    1 MOL     0.1060 ****
 64 H36     5.945158    1.860909    4.148417 HC    1 MOL     0.1060 ****
@<TRIPOS>BOND
    1     1     2 1
    2     1    29 1
    3     1    30 1
    4     1    31 1
    5     2     3 1
    6     2    32 1
    7     3     4 1
    8     3     5 1
    9     5     6 1
   10     5     7 1
   11     5    25 1
   12     6    33 1
   13     6    34 1
   14     6    35 1
   15     7     8 1
   16     7    36 1
   17     7    37 1
   18     8     9 1
   19     8    38 1
   20     8    39 1
   21     9    10 1
   22     9    40 1
   23     9    41 1
   24    10    11 1
   25    10    42 1
   26    11    12 1
   27    11    43 1
   28    12    13 1
   29    12    44 1
   30    12    45 1
   31    13    14 1
   32    13    46 1
   33    13    47 1
   34    14    15 1
   35    14    48 1
   36    14    49 1
   37    15    16 1
   38    15    17 1
   39    15    21 1
   40    16    50 1
   41    16    51 1
   42    16    52 1
   43    17    18 1
   44    17    53 1
   45    18    19 1
   46    18    20 1
   47    19    54 1
   48    19    55 1
   49    19    56 1
   50    21    22 1
   51    21    23 1
   52    23    24 1
   53    23    57 1
   54    24    58 1
   55    24    59 1
   56    24    60 1
   57    25    26 1
   58    25    61 1
   59    26    27 1
   60    26    28 1
   61    27    62 1
   62    27    63 1
   63    27    64 1
@<TRIPOS>SUBSTRUCTURE
      1  MOL              1 ****               0 ****  **** 
