@<TRIPOS>MOLECULE
MOL
   64    63     1     0     1 
SMALL
USER_CHARGES
@<TRIPOS>ATOM
  1 C1      0.000000    0.000000    0.000000 CT    1 MOL    -0.3208 ****
  2 N1      1.448187    0.000000    0.000000 N     1 MOL    -0.5622 ****
  3 C       2.123200    0.475920    1.072365 C     1 MOL     0.8053 ****
  4 O       1.590179    0.696732    2.124447 O     1 MOL    -0.6151 ****
  5 CA      3.650505    0.594143    0.921539 CX    1 MOL     0.0839 ****
  6 C1B     4.327081   -0.602706    1.598029 CU    1 MOL    -0.3230 ****
  7 C2B     4.033336    0.689073   -0.580470 CU    1 MOL    -0.0657 ****
  8 CC      3.665488   -0.473524   -1.519986 CU    1 MOL    -0.0109 ****
  9 CD      2.232290   -0.508925   -2.086843 CU    1 MOL     0.0816 ****
 10 CE      1.840661    0.736884   -2.846360 CM    1 MOL    -0.2354 ****
 11 CF      1.851111    0.918822   -4.156912 CM    1 MOL    -0.2653 ****
 12 CY      2.258532   -0.074525   -5.218526 CU    1 MOL     0.1214 ****
 13 CH      1.078767   -0.738302   -5.951411 CU    1 MOL    -0.0354 ****
 14 CI      0.198624    0.274502   -6.696052 CU    1 MOL    -0.0984 ****
 15 CJ     -0.919546   -0.273354   -7.620278 CU    1 MOL     0.1300 ****
 16 C1K    -1.684456    0.932613   -8.189493 CU    1 MOL    -0.3561 ****
 17 N2K    -0.299036   -1.012955   -8.710915 N     1 MOL    -0.7186 ****
 18 C15    -1.044722   -1.729807   -9.601495 C     1 MOL     0.8537 ****
 19 C16    -0.266784   -2.731852  -10.423399 CT    1 MOL    -0.3868 ****
 20 O2     -2.228350   -1.581138   -9.728237 O     1 MOL    -0.6323 ****
 21 C3K    -1.793848   -1.253957   -6.806189 C     1 MOL     0.7903 ****
 22 OF     -1.454262   -2.398502   -6.669705 O     1 MOL    -0.6136 ****
 23 N3     -2.879627   -0.748441   -6.182074 N     1 MOL    -0.5650 ****
 24 C18    -3.769832   -1.621421   -5.444753 CT    1 MOL    -0.3231 ****
 25 N       4.127563    1.855185    1.507731 N     1 MOL    -0.7191 ****
 26 C19     3.963702    2.189680    2.819574 C     1 MOL     0.8539 ****
 27 C20     4.821145    3.341579    3.301281 CT    1 MOL    -0.3903 ****
 28 O4      3.189990    1.624220    3.539132 O     1 MOL    -0.6290 ****
 29 H1     -0.403259    1.006147    0.000000 H1    1 MOL     0.1459 ****
 30 H2     -0.364960   -0.516002    0.875939 H1    1 MOL     0.1459 ****
 31 H3     -0.345658   -0.522086   -0.883346 H1    1 MOL     0.1459 ****
 32 H4      1.904244    0.070913   -0.879357 H     1 MOL     0.3572 ****
 33 HB1     3.968896   -1.535869    1.190789 HC    1 MOL     0.0997 ****
 34 HB2     5.401266   -0.540824    1.451280 HC    1 MOL     0.0997 ****
 35 HB3     4.116092   -0.604917    2.657465 HC    1 MOL     0.0997 ****
 36 HB4     5.116522    0.786581   -0.601044 HC    1 MOL     0.0347 ****
 37 HB5     3.636861    1.617791   -0.978679 HC    1 MOL     0.0347 ****
 38 HC1     4.347870   -0.415091   -2.362932 HC    1 MOL     0.0243 ****
 39 HC2     3.868339   -1.422018   -1.033586 HC    1 MOL     0.0243 ****
 40 HD1     1.521124   -0.674604   -1.287996 HC    1 MOL     0.0171 ****
 41 HD2     2.164797   -1.377573   -2.732388 HC    1 MOL     0.0171 ****
 42 HE      1.513271    1.562579   -2.235495 HA    1 MOL     0.1313 ****
 43 HF      1.530723    1.881455   -4.523587 HA    1 MOL     0.1359 ****
 44 HG1     2.872232   -0.855764   -4.786666 HC    1 MOL     0.0092 ****
 45 HG2     2.886587    0.436178   -5.947445 HC    1 MOL     0.0092 ****
 46 HH1     1.488126   -1.473390   -6.638756 HC    1 MOL     0.0318 ****
 47 HH2     0.483564   -1.295166   -5.239746 HC    1 MOL     0.0318 ****
 48 HI1     0.826425    0.912431   -7.314475 HC    1 MOL     0.0435 ****
 49 HI2    -0.277923    0.920251   -5.967861 HC    1 MOL     0.0435 ****
 50 HK1    -1.014292    1.500168   -8.824585 HC    1 MOL     0.1066 ****
 51 HK2    -2.020094    1.594443   -7.397843 HC    1 MOL     0.1066 ****
 52 HK3    -2.530898    0.623424   -8.784201 HC    1 MOL     0.1066 ****
 53 HK      0.592223   -1.403405   -8.506176 H     1 MOL     0.3529 ****
 54 H26    -0.825833   -2.966307  -11.316459 HC    1 MOL     0.1047 ****
 55 H27    -0.146632   -3.639386   -9.839387 HC    1 MOL     0.1047 ****
 56 H28     0.717609   -2.363672  -10.691347 HC    1 MOL     0.1047 ****
 57 H29    -3.252857    0.112488   -6.505816 H     1 MOL     0.3615 ****
 58 H30    -4.498473   -1.012969   -4.925340 H1    1 MOL     0.1469 ****
 59 H31    -3.205578   -2.190527   -4.720625 H1    1 MOL     0.1469 ****
 60 H32    -4.286357   -2.315897   -6.099473 H1    1 MOL     0.1469 ****
 61 H       4.886366    2.290044    1.031640 H     1 MOL     0.3570 ****
 62 H34     4.363893    3.773851    4.179367 HC    1 MOL     0.1060 ****
 63 H35     4.947743    4.104838    2.541703 HC    1 MOL     0.1060 ****
 64 H36     5.802696    2.966017    3.572040 HC    1 MOL     0.1060 ****
@<TRIPOS>BOND
    1     1     2 1
    2     1    29 1
    3     1    30 1
    4     1    31 1
    5     2     3 1
    6     2    32 1
    7     3     4 1
    8     3     5 1
    9     5     6 1
   10     5     7 1
   11     5    25 1
   12     6    33 1
   13     6    34 1
   14     6    35 1
   15     7     8 1
   16     7    36 1
   17     7    37 1
   18     8     9 1
   19     8    38 1
   20     8    39 1
   21     9    10 1
   22     9    40 1
   23     9    41 1
   24    10    11 1
   25    10    42 1
   26    11    12 1
   27    11    43 1
   28    12    13 1
   29    12    44 1
   30    12    45 1
   31    13    14 1
   32    13    46 1
   33    13    47 1
   34    14    15 1
   35    14    48 1
   36    14    49 1
   37    15    16 1
   38    15    17 1
   39    15    21 1
   40    16    50 1
   41    16    51 1
   42    16    52 1
   43    17    18 1
   44    17    53 1
   45    18    19 1
   46    18    20 1
   47    19    54 1
   48    19    55 1
   49    19    56 1
   50    21    22 1
   51    21    23 1
   52    23    24 1
   53    23    57 1
   54    24    58 1
   55    24    59 1
   56    24    60 1
   57    25    26 1
   58    25    61 1
   59    26    27 1
   60    26    28 1
   61    27    62 1
   62    27    63 1
   63    27    64 1
@<TRIPOS>SUBSTRUCTURE
      1  MOL              1 ****               0 ****  **** 
