@<TRIPOS>MOLECULE
MOL
   64    63     1     0     1 
SMALL
USER_CHARGES
@<TRIPOS>ATOM
  1 C1      0.000000    0.000000    0.000000 CT    1 MOL    -0.3208 ****
  2 N1      1.448187    0.000000    0.000000 N     1 MOL    -0.5622 ****
  3 C       2.123200    0.475920    1.072365 C     1 MOL     0.8053 ****
  4 O       1.590179    0.696732    2.124447 O     1 MOL    -0.6151 ****
  5 CA      3.650505    0.594143    0.921539 CX    1 MOL     0.0839 ****
  6 C1B     3.979911    1.543009   -0.235607 CU    1 MOL    -0.3230 ****
  7 C2B     4.282836    1.081428    2.253572 CU    1 MOL    -0.0657 ****
  8 CC      3.867728    2.451110    2.820399 CU    1 MOL    -0.0109 ****
  9 CD      2.563209    2.520791    3.638941 CU    1 MOL     0.0816 ****
 10 CE      2.532537    1.588439    4.827240 CM    1 MOL    -0.2354 ****
 11 CF      2.788383    1.884625    6.091191 CM    1 MOL    -0.2653 ****
 12 CY      3.175745    3.229035    6.658878 CU    1 MOL     0.1214 ****
 13 CH      2.030044    3.969742    7.371820 CU    1 MOL    -0.0354 ****
 14 CI      1.480880    3.192571    8.575704 CU    1 MOL    -0.0984 ****
 15 CJ      0.446998    3.900442    9.489298 CU    1 MOL     0.1300 ****
 16 C1K     0.016155    2.895045   10.569577 CU    1 MOL    -0.3561 ****
 17 N2K     1.091765    5.043941   10.120342 N     1 MOL    -0.7186 ****
 18 C15     0.383065    5.939350   10.868033 C     1 MOL     0.8537 ****
 19 C16     1.089318    7.249338   11.132500 CT    1 MOL    -0.3868 ****
 20 O2     -0.717448    5.710914   11.287356 O     1 MOL    -0.6323 ****
 21 C3K    -0.710968    4.422598    8.608848 C     1 MOL     0.7903 ****
 22 OF     -0.611286    5.475530    8.038473 O     1 MOL    -0.6136 ****
 23 N3     -1.773739    3.608334    8.431446 N     1 MOL    -0.5650 ****
 24 C18    -2.915155    4.055944    7.660073 CT    1 MOL    -0.3231 ****
 25 N       4.246739   -0.729375    0.688656 N     1 MOL    -0.7191 ****
 26 C19     3.935529   -1.522936   -0.375807 C     1 MOL     0.8539 ****
 27 C20     4.897880   -2.664680   -0.629623 CT    1 MOL    -0.3903 ****
 28 O4      2.965750   -1.341177   -1.055977 O     1 MOL    -0.6290 ****
 29 H1     -0.403259    1.006147    0.000000 H1    1 MOL     0.1459 ****
 30 H2     -0.364960   -0.516002    0.875939 H1    1 MOL     0.1459 ****
 31 H3     -0.345658   -0.522086   -0.883346 H1    1 MOL     0.1459 ****
 32 H4      1.904244    0.070913   -0.879357 H     1 MOL     0.3572 ****
 33 HB1     3.529385    2.512420   -0.086609 HC    1 MOL     0.0997 ****
 34 HB2     5.056841    1.660294   -0.311134 HC    1 MOL     0.0997 ****
 35 HB3     3.602905    1.145950   -1.166809 HC    1 MOL     0.0997 ****
 36 HB4     5.354476    1.122012    2.071467 HC    1 MOL     0.0347 ****
 37 HB5     4.131320    0.314974    3.007145 HC    1 MOL     0.0347 ****
 38 HC1     4.677012    2.773234    3.469178 HC    1 MOL     0.0243 ****
 39 HC2     3.813541    3.182573    2.020775 HC    1 MOL     0.0243 ****
 40 HD1     1.713718    2.310537    3.002134 HC    1 MOL     0.0171 ****
 41 HD2     2.445013    3.547895    3.965931 HC    1 MOL     0.0171 ****
 42 HE      2.265562    0.568344    4.603083 HA    1 MOL     0.1313 ****
 43 HF      2.711698    1.084225    6.810385 HA    1 MOL     0.1359 ****
 44 HG1     3.559236    3.871511    5.875535 HC    1 MOL     0.0092 ****
 45 HG2     3.995837    3.084770    7.361181 HC    1 MOL     0.0092 ****
 46 HH1     2.405367    4.942170    7.678235 HC    1 MOL     0.0318 ****
 47 HH2     1.236247    4.166720    6.663359 HC    1 MOL     0.0318 ****
 48 HI1     2.305860    2.891068    9.217606 HC    1 MOL     0.0435 ****
 49 HI2     1.017559    2.280935    8.217089 HC    1 MOL     0.0435 ****
 50 HK1     0.872170    2.669609   11.194875 HC    1 MOL     0.1066 ****
 51 HK2    -0.317877    1.962127   10.127460 HC    1 MOL     0.1066 ****
 52 HK3    -0.764375    3.295797   11.198790 HC    1 MOL     0.1066 ****
 53 HK      1.852196    5.435783    9.613472 H     1 MOL     0.3529 ****
 54 H26     0.649519    7.719173   11.999040 HC    1 MOL     0.1047 ****
 55 H27     0.946502    7.898778   10.274038 HC    1 MOL     0.1047 ****
 56 H28     2.154369    7.114938   11.287371 HC    1 MOL     0.1047 ****
 57 H29    -1.927088    2.881104    9.089419 H     1 MOL     0.3615 ****
 58 H30    -3.595866    3.224012    7.535807 H1    1 MOL     0.1469 ****
 59 H31    -2.588597    4.392406    6.687047 H1    1 MOL     0.1469 ****
 60 H32    -3.435811    4.873293    8.148553 H1    1 MOL     0.1469 ****
 61 H       5.138857   -0.877784    1.105366 H     1 MOL     0.3570 ****
 62 H34     4.390234   -3.429006   -1.199776 HC    1 MOL     0.1060 ****
 63 H35     5.282364   -3.089848    0.290678 HC    1 MOL     0.1060 ****
 64 H36     5.737872   -2.299704   -1.211866 HC    1 MOL     0.1060 ****
@<TRIPOS>BOND
    1     1     2 1
    2     1    29 1
    3     1    30 1
    4     1    31 1
    5     2     3 1
    6     2    32 1
    7     3     4 1
    8     3     5 1
    9     5     6 1
   10     5     7 1
   11     5    25 1
   12     6    33 1
   13     6    34 1
   14     6    35 1
   15     7     8 1
   16     7    36 1
   17     7    37 1
   18     8     9 1
   19     8    38 1
   20     8    39 1
   21     9    10 1
   22     9    40 1
   23     9    41 1
   24    10    11 1
   25    10    42 1
   26    11    12 1
   27    11    43 1
   28    12    13 1
   29    12    44 1
   30    12    45 1
   31    13    14 1
   32    13    46 1
   33    13    47 1
   34    14    15 1
   35    14    48 1
   36    14    49 1
   37    15    16 1
   38    15    17 1
   39    15    21 1
   40    16    50 1
   41    16    51 1
   42    16    52 1
   43    17    18 1
   44    17    53 1
   45    18    19 1
   46    18    20 1
   47    19    54 1
   48    19    55 1
   49    19    56 1
   50    21    22 1
   51    21    23 1
   52    23    24 1
   53    23    57 1
   54    24    58 1
   55    24    59 1
   56    24    60 1
   57    25    26 1
   58    25    61 1
   59    26    27 1
   60    26    28 1
   61    27    62 1
   62    27    63 1
   63    27    64 1
@<TRIPOS>SUBSTRUCTURE
      1  MOL              1 ****               0 ****  **** 
