@<TRIPOS>MOLECULE
MOL
   64    63     1     0     1 
SMALL
USER_CHARGES
@<TRIPOS>ATOM
  1 C1      0.000000    0.000000    0.000000 CT    1 MOL    -0.3208 ****
  2 N1      1.448187    0.000000    0.000000 N     1 MOL    -0.5622 ****
  3 C       2.123200    0.475920    1.072365 C     1 MOL     0.8053 ****
  4 O       1.590179    0.696732    2.124447 O     1 MOL    -0.6151 ****
  5 CA      3.650505    0.594143    0.921539 CX    1 MOL     0.0839 ****
  6 C1B     4.278269    0.903770    2.284582 CU    1 MOL    -0.3230 ****
  7 C2B     4.229939   -0.711583    0.312493 CU    1 MOL    -0.0657 ****
  8 CC      4.042502   -2.037376    1.071949 CU    1 MOL    -0.0109 ****
  9 CD      2.702579   -2.779169    0.895919 CU    1 MOL     0.0816 ****
 10 CE      2.366106   -3.108339   -0.539599 CM    1 MOL    -0.2354 ****
 11 CF      2.547243   -4.259365   -1.166565 CM    1 MOL    -0.2653 ****
 12 CY      3.136693   -5.529594   -0.601925 CU    1 MOL     0.1214 ****
 13 CH      2.096572   -6.606679   -0.244711 CU    1 MOL    -0.0354 ****
 14 CI      1.284313   -7.072124   -1.460651 CU    1 MOL    -0.0984 ****
 15 CJ      0.326346   -8.277807   -1.278240 CU    1 MOL     0.1300 ****
 16 C1K    -0.403838   -8.497353   -2.613187 CU    1 MOL    -0.3561 ****
 17 N2K     1.120024   -9.456877   -0.959808 N     1 MOL    -0.7186 ****
 18 C15     0.533250  -10.636838   -0.604216 C     1 MOL     0.8537 ****
 19 C16     1.457169  -11.635068    0.055115 CT    1 MOL    -0.3868 ****
 20 O2     -0.627286  -10.871291   -0.797425 O     1 MOL    -0.6323 ****
 21 C3K    -0.608751   -7.986329   -0.082682 C     1 MOL     0.7903 ****
 22 OF     -0.243216   -8.207354    1.040466 O     1 MOL    -0.6136 ****
 23 N3     -1.789623   -7.387065   -0.348022 N     1 MOL    -0.5650 ****
 24 C18    -2.734524   -7.131819    0.719785 CT    1 MOL    -0.3231 ****
 25 N       3.990012    1.641837   -0.052372 N     1 MOL    -0.7191 ****
 26 C19     3.635198    2.950879    0.089713 C     1 MOL     0.8539 ****
 27 C20     4.370013    3.918014   -0.815171 CT    1 MOL    -0.3903 ****
 28 O4      2.795126    3.312589    0.864041 O     1 MOL    -0.6290 ****
 29 H1     -0.403259    1.006147    0.000000 H1    1 MOL     0.1459 ****
 30 H2     -0.364960   -0.516002    0.875939 H1    1 MOL     0.1459 ****
 31 H3     -0.345658   -0.522086   -0.883346 H1    1 MOL     0.1459 ****
 32 H4      1.904244    0.070913   -0.879357 H     1 MOL     0.3572 ****
 33 HB1     4.018310    0.152361    3.014471 HC    1 MOL     0.0997 ****
 34 HB2     5.358882    0.941845    2.184270 HC    1 MOL     0.0997 ****
 35 HB3     3.925290    1.855552    2.653964 HC    1 MOL     0.0997 ****
 36 HB4     5.300790   -0.542888    0.222813 HC    1 MOL     0.0347 ****
 37 HB5     3.852776   -0.816036   -0.699988 HC    1 MOL     0.0347 ****
 38 HC1     4.830236   -2.701891    0.729145 HC    1 MOL     0.0243 ****
 39 HC2     4.216838   -1.885510    2.132099 HC    1 MOL     0.0243 ****
 40 HD1     1.896856   -2.196743    1.323650 HC    1 MOL     0.0171 ****
 41 HD2     2.760085   -3.687932    1.484711 HC    1 MOL     0.0171 ****
 42 HE      1.924267   -2.302755   -1.103450 HA    1 MOL     0.1313 ****
 43 HF      2.239676   -4.312019   -2.199227 HA    1 MOL     0.1359 ****
 44 HG1     3.718100   -5.312027    0.285823 HC    1 MOL     0.0092 ****
 45 HG2     3.836166   -5.939643   -1.329381 HC    1 MOL     0.0092 ****
 46 HH1     2.626158   -7.440193    0.208241 HC    1 MOL     0.0318 ****
 47 HH2     1.433903   -6.223928    0.520274 HC    1 MOL     0.0318 ****
 48 HI1     1.963155   -7.335723   -2.268874 HC    1 MOL     0.0435 ****
 49 HI2     0.686410   -6.241186   -1.816186 HC    1 MOL     0.0435 ****
 50 HK1     0.322156   -8.794729   -3.360904 HC    1 MOL     0.1066 ****
 51 HK2    -0.871582   -7.581959   -2.960534 HC    1 MOL     0.1066 ****
 52 HK3    -1.147717   -9.276231   -2.537475 HC    1 MOL     0.1066 ****
 53 HK      1.990693   -9.275300   -0.515198 H     1 MOL     0.3529 ****
 54 H26     1.035237  -12.623924   -0.040793 HC    1 MOL     0.1047 ****
 55 H27     1.534642  -11.390267    1.110195 HC    1 MOL     0.1047 ****
 56 H28     2.452563  -11.616218   -0.375254 HC    1 MOL     0.1047 ****
 57 H29    -2.151073   -7.442597   -1.270833 H     1 MOL     0.3615 ****
 58 H30    -3.551963   -6.543263    0.324417 H1    1 MOL     0.1469 ****
 59 H31    -2.250745   -6.576849    1.510096 H1    1 MOL     0.1469 ****
 60 H32    -3.127524   -8.052706    1.138441 H1    1 MOL     0.1469 ****
 61 H       4.787658    1.458630   -0.619597 H     1 MOL     0.3570 ****
 62 H34     3.779752    4.816871   -0.918235 HC    1 MOL     0.1060 ****
 63 H35     4.566725    3.495575   -1.794150 HC    1 MOL     0.1060 ****
 64 H36     5.320440    4.178811   -0.360778 HC    1 MOL     0.1060 ****
@<TRIPOS>BOND
    1     1     2 1
    2     1    29 1
    3     1    30 1
    4     1    31 1
    5     2     3 1
    6     2    32 1
    7     3     4 1
    8     3     5 1
    9     5     6 1
   10     5     7 1
   11     5    25 1
   12     6    33 1
   13     6    34 1
   14     6    35 1
   15     7     8 1
   16     7    36 1
   17     7    37 1
   18     8     9 1
   19     8    38 1
   20     8    39 1
   21     9    10 1
   22     9    40 1
   23     9    41 1
   24    10    11 1
   25    10    42 1
   26    11    12 1
   27    11    43 1
   28    12    13 1
   29    12    44 1
   30    12    45 1
   31    13    14 1
   32    13    46 1
   33    13    47 1
   34    14    15 1
   35    14    48 1
   36    14    49 1
   37    15    16 1
   38    15    17 1
   39    15    21 1
   40    16    50 1
   41    16    51 1
   42    16    52 1
   43    17    18 1
   44    17    53 1
   45    18    19 1
   46    18    20 1
   47    19    54 1
   48    19    55 1
   49    19    56 1
   50    21    22 1
   51    21    23 1
   52    23    24 1
   53    23    57 1
   54    24    58 1
   55    24    59 1
   56    24    60 1
   57    25    26 1
   58    25    61 1
   59    26    27 1
   60    26    28 1
   61    27    62 1
   62    27    63 1
   63    27    64 1
@<TRIPOS>SUBSTRUCTURE
      1  MOL              1 ****               0 ****  **** 
