@<TRIPOS>MOLECULE
MOL
   64    63     1     0     1 
SMALL
USER_CHARGES
@<TRIPOS>ATOM
  1 C1      0.000000    0.000000    0.000000 CT    1 MOL    -0.3208 ****
  2 N1      1.448187    0.000000    0.000000 N     1 MOL    -0.5622 ****
  3 C       2.123200    0.475920    1.072365 C     1 MOL     0.8053 ****
  4 O       1.590179    0.696732    2.124447 O     1 MOL    -0.6151 ****
  5 CA      3.650505    0.594143    0.921539 CX    1 MOL     0.0839 ****
  6 C1B     4.024590    2.047501    0.612263 CU    1 MOL    -0.3230 ****
  7 C2B     4.355385    0.087647    2.209253 CU    1 MOL    -0.0657 ****
  8 CC      4.067560    0.795005    3.545829 CU    1 MOL    -0.0109 ****
  9 CD      2.795195    0.383889    4.313101 CU    1 MOL     0.0816 ****
 10 CE      2.720924   -1.090210    4.635272 CM    1 MOL    -0.2354 ****
 11 CF      3.033429   -1.682819    5.776286 CM    1 MOL    -0.2653 ****
 12 CY      3.543144   -1.031640    7.039579 CU    1 MOL     0.1214 ****
 13 CH      2.480437   -0.867430    8.141056 CU    1 MOL    -0.0354 ****
 14 CI      1.902511   -2.208994    8.611291 CU    1 MOL    -0.0984 ****
 15 CJ      0.953906   -2.203359    9.837978 CU    1 MOL     0.1300 ****
 16 C1K     0.472136   -3.646360   10.059558 CU    1 MOL    -0.3561 ****
 17 N2K     1.705544   -1.758506   11.003601 N     1 MOL    -0.7186 ****
 18 C15     1.091680   -1.517531   12.198657 C     1 MOL     0.8537 ****
 19 C16     1.908276   -0.713244   13.184100 CT    1 MOL    -0.3868 ****
 20 O2     -0.012139   -1.911322   12.454890 O     1 MOL    -0.6323 ****
 21 C3K    -0.181105   -1.187266    9.577148 C     1 MOL     0.7903 ****
 22 OF     -0.011880   -0.018940    9.801439 O     1 MOL    -0.6136 ****
 23 N3     -1.310548   -1.650706    8.999600 N     1 MOL    -0.5650 ****
 24 C18    -2.432189   -0.762330    8.773966 CT    1 MOL    -0.3231 ****
 25 N       4.131420   -0.299540   -0.142172 N     1 MOL    -0.7191 ****
 26 C19     3.728870   -0.213710   -1.442272 C     1 MOL     0.8539 ****
 27 C20     4.588706   -0.971040   -2.432855 CT    1 MOL    -0.3903 ****
 28 O4      2.759187    0.404567   -1.779301 O     1 MOL    -0.6290 ****
 29 H1     -0.403259    1.006147    0.000000 H1    1 MOL     0.1459 ****
 30 H2     -0.364960   -0.516002    0.875939 H1    1 MOL     0.1459 ****
 31 H3     -0.345658   -0.522086   -0.883346 H1    1 MOL     0.1459 ****
 32 H4      1.904244    0.070913   -0.879357 H     1 MOL     0.3572 ****
 33 HB1     3.658004    2.716503    1.375797 HC    1 MOL     0.0997 ****
 34 HB2     5.105082    2.137184    0.551170 HC    1 MOL     0.0997 ****
 35 HB3     3.592072    2.355361   -0.328522 HC    1 MOL     0.0997 ****
 36 HB4     5.421570    0.186867    2.017875 HC    1 MOL     0.0347 ****
 37 HB5     4.162541   -0.975653    2.311658 HC    1 MOL     0.0347 ****
 38 HC1     4.917213    0.590743    4.190799 HC    1 MOL     0.0243 ****
 39 HC2     4.051392    1.870192    3.400623 HC    1 MOL     0.0243 ****
 40 HD1     1.914839    0.668161    3.751383 HC    1 MOL     0.0171 ****
 41 HD2     2.769136    0.968324    5.226113 HC    1 MOL     0.0171 ****
 42 HE      2.366514   -1.717642    3.833500 HA    1 MOL     0.1313 ****
 43 HF      2.911487   -2.753562    5.825290 HA    1 MOL     0.1359 ****
 44 HG1     3.956310   -0.054920    6.818721 HC    1 MOL     0.0092 ****
 45 HG2     4.367302   -1.628539    7.428255 HC    1 MOL     0.0092 ****
 46 HH1     2.941141   -0.334079    8.967895 HC    1 MOL     0.0318 ****
 47 HH2     1.686576   -0.227326    7.779280 HC    1 MOL     0.0318 ****
 48 HI1     2.717223   -2.888153    8.853201 HC    1 MOL     0.0435 ****
 49 HI2     1.357651   -2.658333    7.789358 HC    1 MOL     0.0435 ****
 50 HK1     1.323477   -4.257926   10.334854 HC    1 MOL     0.1066 ****
 51 HK2     0.052154   -4.064466    9.150612 HC    1 MOL     0.1066 ****
 52 HK3    -0.256426   -3.705981   10.854153 HC    1 MOL     0.1066 ****
 53 HK      2.481388   -1.167967   10.808563 H     1 MOL     0.3529 ****
 54 H26     1.531110   -0.887015   14.180398 HC    1 MOL     0.1047 ****
 55 H27     1.795605    0.340628   12.947911 HC    1 MOL     0.1047 ****
 56 H28     2.962727   -0.963525   13.140798 HC    1 MOL     0.1047 ****
 57 H29    -1.504593   -2.622682    9.053636 H     1 MOL     0.3615 ****
 58 H30    -3.180970   -1.290565    8.198453 H1    1 MOL     0.1469 ****
 59 H31    -2.105529    0.103429    8.216849 H1    1 MOL     0.1469 ****
 60 H32    -2.871900   -0.423973    9.706663 H1    1 MOL     0.1469 ****
 61 H       5.019404   -0.720221    0.019255 H     1 MOL     0.3570 ****
 62 H34     4.005955   -1.170040   -3.320420 HC    1 MOL     0.1060 ****
 63 H35     4.961938   -1.903261   -2.023940 HC    1 MOL     0.1060 ****
 64 H36     5.439646   -0.356506   -2.708627 HC    1 MOL     0.1060 ****
@<TRIPOS>BOND
    1     1     2 1
    2     1    29 1
    3     1    30 1
    4     1    31 1
    5     2     3 1
    6     2    32 1
    7     3     4 1
    8     3     5 1
    9     5     6 1
   10     5     7 1
   11     5    25 1
   12     6    33 1
   13     6    34 1
   14     6    35 1
   15     7     8 1
   16     7    36 1
   17     7    37 1
   18     8     9 1
   19     8    38 1
   20     8    39 1
   21     9    10 1
   22     9    40 1
   23     9    41 1
   24    10    11 1
   25    10    42 1
   26    11    12 1
   27    11    43 1
   28    12    13 1
   29    12    44 1
   30    12    45 1
   31    13    14 1
   32    13    46 1
   33    13    47 1
   34    14    15 1
   35    14    48 1
   36    14    49 1
   37    15    16 1
   38    15    17 1
   39    15    21 1
   40    16    50 1
   41    16    51 1
   42    16    52 1
   43    17    18 1
   44    17    53 1
   45    18    19 1
   46    18    20 1
   47    19    54 1
   48    19    55 1
   49    19    56 1
   50    21    22 1
   51    21    23 1
   52    23    24 1
   53    23    57 1
   54    24    58 1
   55    24    59 1
   56    24    60 1
   57    25    26 1
   58    25    61 1
   59    26    27 1
   60    26    28 1
   61    27    62 1
   62    27    63 1
   63    27    64 1
@<TRIPOS>SUBSTRUCTURE
      1  MOL              1 ****               0 ****  **** 
