@<TRIPOS>MOLECULE
MOL
   64    63     1     0     1 
SMALL
USER_CHARGES
@<TRIPOS>ATOM
  1 C1      0.000000    0.000000    0.000000 CT    1 MOL    -0.3208 ****
  2 N1      1.448187    0.000000    0.000000 N     1 MOL    -0.5622 ****
  3 C       2.123200    0.475920    1.072365 C     1 MOL     0.8053 ****
  4 O       1.590179    0.696732    2.124447 O     1 MOL    -0.6151 ****
  5 CA      3.650505    0.594143    0.921539 CX    1 MOL     0.0839 ****
  6 C1B     3.992151    1.869811    0.144499 CU    1 MOL    -0.3230 ****
  7 C2B     4.327995    0.581287    2.318837 CU    1 MOL    -0.0657 ****
  8 CC      3.977039    1.688242    3.329339 CU    1 MOL    -0.0109 ****
  9 CD      2.693097    1.513318    4.164523 CU    1 MOL     0.0816 ****
 10 CE      2.651171    0.233948    4.966853 CM    1 MOL    -0.2354 ****
 11 CF      2.943857    0.075473    6.247469 CM    1 MOL    -0.2653 ****
 12 CY      3.393673    1.135174    7.224430 CU    1 MOL     0.1214 ****
 13 CH      2.291818    1.622338    8.182632 CU    1 MOL    -0.0354 ****
 14 CI      1.738117    0.498544    9.068868 CU    1 MOL    -0.0984 ****
 15 CJ      0.750820    0.883422   10.201016 CU    1 MOL     0.1300 ****
 16 C1K     0.304108   -0.416334   10.889881 CU    1 MOL    -0.3561 ****
 17 N2K     1.451438    1.725285   11.161189 N     1 MOL    -0.7186 ****
 18 C15     0.792780    2.333431   12.190454 C     1 MOL     0.8537 ****
 19 C16     1.553691    3.454591   12.860393 CT    1 MOL    -0.3868 ****
 20 O2     -0.306853    2.008022   12.542674 O     1 MOL    -0.6323 ****
 21 C3K    -0.404131    1.706948    9.587323 C     1 MOL     0.7903 ****
 22 OF     -0.276055    2.887693    9.404658 O     1 MOL    -0.6136 ****
 23 N3     -1.500559    1.032516    9.178708 N     1 MOL    -0.5650 ****
 24 C18    -2.639591    1.748420    8.641781 CT    1 MOL    -0.3231 ****
 25 N       4.190992   -0.588133    0.234860 N     1 MOL    -0.7191 ****
 26 C19     3.828111   -0.963400   -1.024967 C     1 MOL     0.8539 ****
 27 C20     4.740872   -1.978273   -1.681488 CT    1 MOL    -0.3903 ****
 28 O4      2.852285   -0.533364   -1.571752 O     1 MOL    -0.6290 ****
 29 H1     -0.403259    1.006147    0.000000 H1    1 MOL     0.1459 ****
 30 H2     -0.364960   -0.516002    0.875939 H1    1 MOL     0.1459 ****
 31 H3     -0.345658   -0.522086   -0.883346 H1    1 MOL     0.1459 ****
 32 H4      1.904244    0.070913   -0.879357 H     1 MOL     0.3572 ****
 33 HB1     3.582029    2.743500    0.627613 HC    1 MOL     0.0997 ****
 34 HB2     5.071003    1.974588    0.078628 HC    1 MOL     0.0997 ****
 35 HB3     3.581364    1.823893   -0.853535 HC    1 MOL     0.0997 ****
 36 HB4     5.396465    0.650331    2.126930 HC    1 MOL     0.0347 ****
 37 HB5     4.162789   -0.390909    2.772514 HC    1 MOL     0.0347 ****
 38 HC1     4.811080    1.747189    4.022534 HC    1 MOL     0.0243 ****
 39 HC2     3.934461    2.649143    2.827113 HC    1 MOL     0.0243 ****
 40 HD1     1.823393    1.556629    3.521791 HC    1 MOL     0.0171 ****
 41 HD2     2.620825    2.371147    4.823871 HC    1 MOL     0.0171 ****
 42 HE      2.340997   -0.641098    4.418948 HA    1 MOL     0.1313 ****
 43 HF      2.851416   -0.919116    6.654910 HA    1 MOL     0.1359 ****
 44 HG1     3.785305    1.994233    6.693291 HC    1 MOL     0.0092 ****
 45 HG2     4.221832    0.737192    7.809542 HC    1 MOL     0.0092 ****
 46 HH1     2.710101    2.421490    8.788246 HC    1 MOL     0.0318 ****
 47 HH2     1.491814    2.071205    7.608749 HC    1 MOL     0.0318 ****
 48 HI1     2.563934   -0.026866    9.543741 HC    1 MOL     0.0435 ****
 49 HI2     1.233170   -0.223178    8.437602 HC    1 MOL     0.0435 ****
 50 HK1     1.163491   -0.865492   11.373925 HC    1 MOL     0.1066 ****
 51 HK2    -0.074185   -1.133426   10.168733 HC    1 MOL     0.1066 ****
 52 HK3    -0.447581   -0.230852   11.642410 HC    1 MOL     0.1066 ****
 53 HK      2.215748    2.243887   10.792958 H     1 MOL     0.3529 ****
 54 H26     1.149890    3.614515   13.848537 HC    1 MOL     0.1047 ****
 55 H27     1.418240    4.360942   12.277893 HC    1 MOL     0.1047 ****
 56 H28     2.615785    3.244823   12.926243 HC    1 MOL     0.1047 ****
 57 H29    -1.668053    0.129730    9.555847 H     1 MOL     0.3615 ****
 58 H30    -3.353905    1.028274    8.264864 H1    1 MOL     0.1469 ****
 59 H31    -2.320371    2.385914    7.830408 H1    1 MOL     0.1469 ****
 60 H32    -3.118644    2.365831    9.394818 H1    1 MOL     0.1469 ****
 61 H       5.085124   -0.895045    0.547718 H     1 MOL     0.3570 ****
 62 H34     4.192940   -2.488352   -2.460309 HC    1 MOL     0.1060 ****
 63 H35     5.127573   -2.701800   -0.972601 HC    1 MOL     0.1060 ****
 64 H36     5.582107   -1.461614   -2.132252 HC    1 MOL     0.1060 ****
@<TRIPOS>BOND
    1     1     2 1
    2     1    29 1
    3     1    30 1
    4     1    31 1
    5     2     3 1
    6     2    32 1
    7     3     4 1
    8     3     5 1
    9     5     6 1
   10     5     7 1
   11     5    25 1
   12     6    33 1
   13     6    34 1
   14     6    35 1
   15     7     8 1
   16     7    36 1
   17     7    37 1
   18     8     9 1
   19     8    38 1
   20     8    39 1
   21     9    10 1
   22     9    40 1
   23     9    41 1
   24    10    11 1
   25    10    42 1
   26    11    12 1
   27    11    43 1
   28    12    13 1
   29    12    44 1
   30    12    45 1
   31    13    14 1
   32    13    46 1
   33    13    47 1
   34    14    15 1
   35    14    48 1
   36    14    49 1
   37    15    16 1
   38    15    17 1
   39    15    21 1
   40    16    50 1
   41    16    51 1
   42    16    52 1
   43    17    18 1
   44    17    53 1
   45    18    19 1
   46    18    20 1
   47    19    54 1
   48    19    55 1
   49    19    56 1
   50    21    22 1
   51    21    23 1
   52    23    24 1
   53    23    57 1
   54    24    58 1
   55    24    59 1
   56    24    60 1
   57    25    26 1
   58    25    61 1
   59    26    27 1
   60    26    28 1
   61    27    62 1
   62    27    63 1
   63    27    64 1
@<TRIPOS>SUBSTRUCTURE
      1  MOL              1 ****               0 ****  **** 
