#
# Generated by PyRED version APR-2018
#     http://q4md-forcefieldtools.org
#
@<TRIPOS>MOLECULE
LIG
    44    43     1     0     1
SMALL
USER_CHARGES
@<TRIPOS>ATOM
   1 C1    -6.807107   0.219917  -1.188156 CT   1   LIG -0.0471  0.0000 ****
   2 H1    -5.969221  -0.098353  -1.798747 HC   1   LIG  0.0082  0.0000 ****
   3 H2    -6.817076   1.306601  -1.183204 HC   1   LIG  0.0082  0.0000 ****
   4 H3    -7.719824  -0.116677  -1.670660 HC   1   LIG  0.0082  0.0000 ****
   5 C2    -6.704559  -0.331899   0.233253 CT   1   LIG  0.0718  0.0000 ****
   6 H4    -7.577288  -0.020778   0.802139 HC   1   LIG -0.0109  0.0000 ****
   7 H5    -6.732389  -1.419276   0.204252 HC   1   LIG -0.0109  0.0000 ****
   8 C3    -5.442912   0.121511   0.983953 CT   1   LIG -0.0098  0.0000 ****
   9 H31   -5.523558  -0.207017   2.018949 HC   1   LIG  0.0253  0.0000 ****
  10 H32   -5.402873   1.207645   1.005644 HC   1   LIG  0.0253  0.0000 ****
  11 CF1   -4.165533  -0.421925   0.399965 CM   1   LIG -0.1986  0.0000 ****
  12 HF    -4.088831  -1.499989   0.367403 HA   1   LIG  0.1419  0.0000 ****
  13 CE    -3.161595   0.302668  -0.058872 CM   1   LIG -0.2301  0.0000 ****
  14 HE1   -3.236207   1.380236  -0.025966 HA   1   LIG  0.1505  0.0000 ****
  15 CD    -1.879291  -0.244418  -0.626373 CT   1   LIG -0.0072  0.0000 ****
  16 HD1   -1.931539  -1.329486  -0.667853 HC   1   LIG  0.0291  0.0000 ****
  17 HD2   -1.765652   0.103715  -1.652011 HC   1   LIG  0.0291  0.0000 ****
  18 CC    -0.648165   0.189137   0.181945 CT   1   LIG  0.0368  0.0000 ****
  19 HC1   -0.603250   1.269495   0.218674 HC   1   LIG  0.0063  0.0000 ****
  20 HC2   -0.765711  -0.167009   1.201062 HC   1   LIG  0.0063  0.0000 ****
  21 CBA    0.641478  -0.373196  -0.425260 CT   1   LIG -0.0053  0.0000 ****
  22 HBA1   0.597003  -1.455584  -0.377432 HC   1   LIG  0.0139  0.0000 ****
  23 HBA2   0.690049  -0.100287  -1.475623 HC   1   LIG  0.0139  0.0000 ****
  24 CA     1.977202   0.038779   0.232773 CX   1   LIG  0.0455  0.0000 ****
  25 CBB    1.927968  -0.049704   1.769993 CT   1   LIG -0.0764  0.0000 ****
  26 HBB1   1.289855   0.732662   2.162864 HC   1   LIG  0.0352  0.0000 ****
  27 HBB2   2.918697   0.075393   2.192043 HC   1   LIG  0.0352  0.0000 ****
  28 H18    1.547809  -1.008288   2.085704 HC   1   LIG  0.0352  0.0000 ****
  29 N      3.068141  -0.796212  -0.300833 N    1   LIG -0.5669  0.0000 ****
  30 H      3.482861  -0.460668  -1.142337 H    1   LIG  0.3000  0.0000 ****
  31 C11    3.212628  -2.134790  -0.082223 C    1   LIG  0.6629  0.0000 ****
  32 O1     2.593355  -2.750855   0.738100 O    1   LIG -0.5316  0.0000 ****
  33 C12    4.236807  -2.807449  -0.975045 CT   1   LIG -0.3101  0.0000 ****
  34 H20    5.092105  -2.171185  -1.172755 HC   1   LIG  0.0915  0.0000 ****
  35 H21    3.772795  -3.058104  -1.924505 HC   1   LIG  0.0915  0.0000 ****
  36 H22    4.563662  -3.721923  -0.502065 HC   1   LIG  0.0915  0.0000 ****
  37 C      2.336918   1.496857  -0.121816 C    1   LIG  0.6671  0.0000 ****
  38 O      1.513366   2.289423  -0.488929 O    1   LIG -0.5502  0.0000 ****
  39 N23    3.638993   1.835320   0.020936 N    1   LIG -0.5717  0.0000 ****
  40 H23    4.249449   1.184261   0.457253 H    1   LIG  0.3175  0.0000 ****
  41 C13    4.070113   3.211654  -0.109188 CT   1   LIG -0.0440  0.0000 ****
  42 H24    3.705668   3.624062  -1.038574 H1   1   LIG  0.0743  0.0000 ****
  43 H25    3.704243   3.828762   0.704306 H1   1   LIG  0.0743  0.0000 ****
  44 H26    5.151817   3.236654  -0.112346 H1   1   LIG  0.0743  0.0000 ****
@<TRIPOS>BOND
    1     1     2 1
    2     1     3 1
    3     1     4 1
    4     1     5 1
    5     5     6 1
    6     5     7 1
    7     5     8 1
    8     8     9 1
    9     8    10 1
   10     8    11 1
   11    11    12 1
   12    11    13 2
   13    13    14 1
   14    13    15 1
   15    15    16 1
   16    15    17 1
   17    15    18 1
   18    18    19 1
   19    18    20 1
   20    18    21 1
   21    21    22 1
   22    21    23 1
   23    21    24 1
   24    24    25 1
   25    24    29 1
   26    24    37 1
   27    25    26 1
   28    25    27 1
   29    25    28 1
   30    29    30 1
   31    29    31 1
   32    31    32 1
   33    31    33 1
   34    33    34 1
   35    33    35 1
   36    33    36 1
   37    37    38 2
   38    37    39 1
   39    39    40 1
   40    39    41 1
   41    41    42 1
   42    41    43 1
   43    41    44 1
@<TRIPOS>SUBSTRUCTURE
      1 LIG               1 ****               0 ****  ****
@<TRIPOS>HEADTAIL
0 0
0 0
@<TRIPOS>RESIDUECONNECT
1 0 0 0 0 0 0
