@<TRIPOS>MOLECULE
AKS
   17    16     1     0     1 
SMALL
USER_CHARGES
@<TRIPOS>ATOM
  1 N      -1.063333   -2.096520   -0.505653 N     1 AKS    -0.6505 ****
  2 H      -1.992722   -2.114545   -0.900917 H     1 AKS     0.3245 ****
  3 CA     -0.575759   -0.844472    0.036542 CX    1 AKS     0.6100 ****
  4 HA     -1.026648   -0.412136    0.929313 H1    1 AKS    -0.5564 ****
  5 C      -1.415739    0.324437   -0.457667 C     1 AKS     0.0053 ****
  6 O      -0.946553    1.133742   -1.254746 O     1 AKS     0.0053 ****
  7 CB      0.767624   -0.349662   -0.490534 CV    1 AKS     0.0147 ****
  8 HB2     1.095355   -1.324573   -0.129510 HC    1 AKS     0.0087 ****
  9 HB1     0.761565   -0.151192   -1.561960 HC    1 AKS     0.0087 ****
 10 CC      2.080806    0.004102    0.200785 CV    1 AKS     0.0728 ****
 11 HC1     2.252216    0.596892   -0.697792 HC    1 AKS     0.0342 ****
 12 HC2     2.028584    0.679611    1.054698 HC    1 AKS     0.0342 ****
 13 CD      3.429779   -0.643320   -0.097613 CV    1 AKS    -0.2363 ****
 14 HD1     3.918084   -0.514025   -1.063162 HC    1 AKS     0.1547 ****
 15 HD2     3.650783   -1.710363   -0.122878 HC    1 AKS     0.0000 ****
 16 CY      4.526468    0.027175    0.693753 CY    1 AKS     0.0000 ****
 17 HY      4.841543    1.008022    0.370159 HY    1 AKS     0.0000 ****
@<TRIPOS>BOND
    1     1     2 1
    2     1     3 1
    3     3     4 1
    4     3     5 1
    5     3     7 1
    6     5     6 1
    7     7     8 1
    8     7     9 1
    9     7    10 1
   10    10    11 1
   11    10    12 1
   12    10    13 1
   13    13    14 1
   14    13    15 1
   15    13    16 1
   16    16    17 1
@<TRIPOS>SUBSTRUCTURE
      1  AKS              1 ****               0 ****  **** 
